@<TRIPOS>MOLECULE
DCD
  158   162     1     0     0
SMALL
bcc


@<TRIPOS>ATOM
      1 N1          -5.4660     4.6860    -0.9150 n3         1 DCD      -0.889300
      2 C1          -5.9550     3.3400    -0.5350 c3         1 DCD       0.119000
      3 C2          -7.4570     3.3950    -0.2560 c3         1 DCD      -0.138900
      4 C3          -7.9880     2.0000    -0.1080 c          1 DCD       0.638100
      5 O1          -7.3960     0.9710    -0.3900 o          1 DCD      -0.561500
      6 O2          -9.2500     1.9710     0.3570 oh         1 DCD      -0.606600
      7 C4          -5.1750     2.8860     0.7210 c          1 DCD       0.617100
      8 O3          -5.5800     3.0650     1.8650 o          1 DCD      -0.628100
      9 N2          -3.9360     2.3370     0.4370 n          1 DCD      -0.554900
     10 C5          -2.8980     2.3450     1.4730 c3         1 DCD       0.049200
     11 C6          -1.5140     1.9660     0.9170 c3         1 DCD      -0.014800
     12 S1          -1.0350     3.0910    -0.4470 ss         1 DCD      -0.277600
     13 S2           0.9700     2.7000    -0.6800 ss         1 DCD      -0.042600
     14 C7           1.7150     3.7670     0.6050 c3         1 DCD      -0.064300
     15 C8           3.2240     3.9510     0.3840 c3         1 DCD       0.056700
     16 C9           3.5310     5.0500    -0.6490 c          1 DCD       0.643600
     17 O4           2.6740     5.7570    -1.1680 o          1 DCD      -0.606600
     18 N3           4.8830     5.1740    -0.9220 n          1 DCD      -0.539400
     19 C10          5.4560     6.4070    -1.4720 c3         1 DCD       0.026700
     20 C11          4.7450     6.9120    -2.7290 c3         1 DCD      -0.141900
     21 C12          5.6980     7.7160    -3.5570 c          1 DCD       0.638100
     22 O5           6.7050     8.2670    -3.1360 o          1 DCD      -0.555000
     23 O6           5.3250     7.8220    -4.8420 oh         1 DCD      -0.599100
     24 C13          5.4900     7.4660    -0.3460 c          1 DCD       0.605600
     25 O7           4.8790     7.3680     0.7130 o          1 DCD      -0.504500
     26 O8           6.2950     8.5260    -0.5950 oh         1 DCD      -0.569600
     27 N4           3.8770     4.3690     1.6420 n          1 DCD      -0.554400
     28 C14          4.2290     3.5800     2.6980 c          1 DCD       0.617600
     29 O9           4.3170     4.0730     3.8230 o          1 DCD      -0.601600
     30 C15          4.5950     2.1060     2.4500 c3         1 DCD       0.043200
     31 C16          6.1150     2.0220     2.2530 c3         1 DCD      -0.173900
     32 C17          6.4130     2.0850     0.7740 c          1 DCD       0.667100
     33 O10          6.3990     3.1690     0.1950 o          1 DCD      -0.638600
     34 N5           6.5830     0.8440     0.1970 n          1 DCD      -0.460100
     35 C18          6.6280     0.5350    -1.1790 ca         1 DCD       0.042100
     36 C19          6.8620    -0.8000    -1.5220 ca         1 DCD      -0.145500
     37 C20          6.8860    -1.1990    -2.8620 ca         1 DCD      -0.102500
     38 C21          6.6720    -0.2700    -3.8870 ca         1 DCD      -0.046000
     39 C22          6.6840    -0.6540    -5.2380 ca         1 DCD      -0.113500
     40 C23          6.4620     0.2840    -6.2470 ca         1 DCD      -0.127000
     41 C24          6.2250     1.6150    -5.9190 ca         1 DCD      -0.122500
     42 C25          6.2110     2.0110    -4.5810 ca         1 DCD      -0.119500
     43 C26          6.4330     1.0810    -3.5520 ca         1 DCD      -0.024000
     44 C27          6.4150     1.4660    -2.1980 ca         1 DCD      -0.135500
     45 N6           4.1670     1.3390     3.6260 n          1 DCD      -0.539400
     46 C28          4.0290    -0.0170     3.7230 c          1 DCD       0.636600
     47 O11          3.9120    -0.5440     4.8310 o          1 DCD      -0.580600
     48 C29          3.9670    -0.8570     2.4380 c3         1 DCD       0.049200
     49 N7           4.6440    -2.1240     2.7160 n          1 DCD      -0.554900
     50 C30          5.9940    -2.2520     2.4600 c          1 DCD       0.617100
     51 O12          6.6560    -1.3450     1.9560 o          1 DCD      -0.628100
     52 C31          6.6140    -3.5970     2.8940 c3         1 DCD       0.119000
     53 N8           6.7430    -3.6230     4.3670 n3         1 DCD      -0.889300
     54 C32          5.8060    -4.7960     2.3970 c3         1 DCD      -0.138900
     55 C33          5.6560    -4.7510     0.9020 c          1 DCD       0.638100
     56 O13          6.3960    -4.1970     0.1080 o          1 DCD      -0.561500
     57 O14          4.5750    -5.4320     0.4760 oh         1 DCD      -0.606600
     58 C34          2.5010    -1.0400     2.0350 c3         1 DCD      -0.014800
     59 S3           2.4020    -1.9490     0.4480 ss         1 DCD      -0.277600
     60 S4           0.4070    -1.8420    -0.0130 ss         1 DCD      -0.042600
     61 C35         -0.3020    -3.2000     0.9930 c3         1 DCD      -0.064300
     62 C36         -1.7360    -3.5700     0.5700 c3         1 DCD       0.056700
     63 C37         -1.7420    -4.2690    -0.8020 c          1 DCD       0.643600
     64 O15         -2.1640    -3.7420    -1.8310 o          1 DCD      -0.606600
     65 N9          -1.1880    -5.5250    -0.8410 n          1 DCD      -0.539400
     66 C38         -1.2540    -6.4280    -2.0100 c3         1 DCD       0.026700
     67 C39         -2.6900    -6.7300    -2.4350 c3         1 DCD      -0.141900
     68 C40         -2.7620    -7.9110    -3.3580 c          1 DCD       0.638100
     69 O16         -3.3540    -7.9500    -4.4220 o          1 DCD      -0.555000
     70 O17         -2.1550    -9.0060    -2.8660 oh         1 DCD      -0.599100
     71 C41         -0.4300    -5.9970    -3.2350 c          1 DCD       0.605600
     72 O18          0.1470    -6.8060    -3.9520 o          1 DCD      -0.504500
     73 O19         -0.4590    -4.6840    -3.5370 oh         1 DCD      -0.569600
     74 N10         -2.6530    -2.4380     0.5460 n          1 DCD      -0.554400
     75 C42         -3.0510    -1.7960     1.6900 c          1 DCD       0.617600
     76 O20         -2.6670    -2.1540     2.8030 o          1 DCD      -0.601600
     77 C43         -4.0230    -0.6120     1.4800 c3         1 DCD       0.043200
     78 C44         -5.4680    -1.1100     1.4610 c3         1 DCD      -0.173900
     79 C45         -5.8360    -1.7360     0.1390 c          1 DCD       0.667100
     80 O21         -4.9700    -1.9630    -0.7150 o          1 DCD      -0.638600
     81 N11         -7.1180    -2.0910    -0.1610 n          1 DCD      -0.460100
     82 C46         -8.3540    -1.9570     0.5000 ca         1 DCD       0.042100
     83 C47         -8.5300    -1.6190     1.8390 ca         1 DCD      -0.145500
     84 C48         -9.8170    -1.4710     2.3750 ca         1 DCD      -0.102500
     85 C49        -10.9570    -1.6660     1.5850 ca         1 DCD      -0.046000
     86 C50        -12.2500    -1.5110     2.1090 ca         1 DCD      -0.113500
     87 C51        -13.3720    -1.7110     1.3040 ca         1 DCD      -0.127000
     88 C52        -13.2150    -2.0700    -0.0310 ca         1 DCD      -0.122500
     89 C53        -11.9350    -2.2280    -0.5640 ca         1 DCD      -0.119500
     90 C54        -10.7950    -2.0300     0.2330 ca         1 DCD      -0.024000
     91 C55         -9.4960    -2.1780    -0.2860 ca         1 DCD      -0.135500
     92 N12         -3.8190     0.2710     2.6360 n          1 DCD      -0.539400
     93 C56         -3.1440     1.4510     2.7060 c          1 DCD       0.636600
     94 O22         -2.6130     1.7340     3.7860 o          1 DCD      -0.580600
     95 H1          -4.4530     4.6740    -1.0320 hn         1 DCD       0.368550
     96 H2          -5.6460     5.3320    -0.1430 hn         1 DCD       0.368550
     97 H3          -5.7400     2.6510    -1.3600 h1         1 DCD       0.102200
     98 H4          -7.6740     3.9580     0.6590 hc         1 DCD       0.102450
     99 H5          -7.9870     3.8630    -1.0940 hc         1 DCD       0.102450
    100 H6          -9.4880     1.0200     0.4160 ho         1 DCD       0.464500
    101 H7          -3.6060     2.4990    -0.5090 hn         1 DCD       0.343500
    102 H8          -2.8650     3.3750     1.8580 h1         1 DCD       0.112200
    103 H9          -0.7640     2.0240     1.7130 h1         1 DCD       0.099950
    104 H10         -1.5210     0.9430     0.5270 h1         1 DCD       0.099950
    105 H11          1.2050     4.7360     0.6290 h1         1 DCD       0.108950
    106 H12          1.5340     3.2740     1.5670 h1         1 DCD       0.108950
    107 H13          3.6820     3.0210     0.0370 h1         1 DCD       0.094700
    108 H14          5.5040     4.6250    -0.3190 hn         1 DCD       0.347500
    109 H15          6.4980     6.1380    -1.6870 h1         1 DCD       0.111700
    110 H16          4.4090     6.0620    -3.3340 hc         1 DCD       0.114450
    111 H17          3.8880     7.5500    -2.4900 hc         1 DCD       0.114450
    112 H18          5.9920     8.3930    -5.2770 ho         1 DCD       0.453500
    113 H19          6.7480     8.5180    -1.4720 ho         1 DCD       0.456500
    114 H20          3.7520     5.3480     1.9020 hn         1 DCD       0.350000
    115 H21          4.0370     1.7160     1.5970 h1         1 DCD       0.099700
    116 H22          6.6480     2.8460     2.7450 hc         1 DCD       0.105950
    117 H23          6.5280     1.1020     2.6780 hc         1 DCD       0.105950
    118 H24          6.7270     0.0450     0.8250 hn         1 DCD       0.343500
    119 H25          7.0270    -1.5550    -0.7560 ha         1 DCD       0.149000
    120 H26          7.0700    -2.2470    -3.0920 ha         1 DCD       0.137500
    121 H27          6.8640    -1.6910    -5.5130 ha         1 DCD       0.134000
    122 H28          6.4720    -0.0270    -7.2890 ha         1 DCD       0.134500
    123 H29          6.0480     2.3460    -6.7040 ha         1 DCD       0.134500
    124 H30          6.0190     3.0560    -4.3440 ha         1 DCD       0.135000
    125 H31          6.2220     2.5080    -1.9680 ha         1 DCD       0.152000
    126 H32          4.2140     1.8280     4.5190 hn         1 DCD       0.323000
    127 H33          4.5060    -0.3550     1.6330 h1         1 DCD       0.112200
    128 H34          4.2710    -2.6610     3.4910 hn         1 DCD       0.343500
    129 H35          7.6220    -3.6420     2.4630 h1         1 DCD       0.102200
    130 H36          7.3800    -2.8750     4.6520 hn         1 DCD       0.368550
    131 H37          5.8550    -3.4080     4.8190 hn         1 DCD       0.368550
    132 H38          6.3080    -5.7340     2.6580 hc         1 DCD       0.102450
    133 H39          4.8070    -4.8080     2.8490 hc         1 DCD       0.102450
    134 H40          4.5900    -5.3270    -0.5000 ho         1 DCD       0.464500
    135 H41          1.9560    -1.6030     2.8000 h1         1 DCD       0.099950
    136 H42          2.0210    -0.0620     1.9170 h1         1 DCD       0.099950
    137 H43          0.3480    -4.0770     0.9080 h1         1 DCD       0.108950
    138 H44         -0.2900    -2.8750     2.0380 h1         1 DCD       0.108950
    139 H45         -2.1390    -4.2890     1.2960 h1         1 DCD       0.094700
    140 H46         -0.9530    -5.9700     0.0390 hn         1 DCD       0.347500
    141 H47         -0.7670    -7.3410    -1.6430 h1         1 DCD       0.111700
    142 H48         -3.1320    -5.8740    -2.9570 hc         1 DCD       0.114450
    143 H49         -3.3250    -6.9440    -1.5670 hc         1 DCD       0.114450
    144 H50         -2.2610    -9.6740    -3.5780 ho         1 DCD       0.453500
    145 H51         -1.0960    -4.1580    -2.9970 ho         1 DCD       0.456500
    146 H52         -3.1720    -2.2630    -0.3220 hn         1 DCD       0.350000
    147 H53         -3.7450    -0.0990     0.5580 h1         1 DCD       0.099700
    148 H54         -6.1280    -0.2540     1.6330 hc         1 DCD       0.105950
    149 H55         -5.6150    -1.8560     2.2500 hc         1 DCD       0.105950
    150 H56         -7.1690    -2.4090    -1.1230 hn         1 DCD       0.343500
    151 H57         -7.7070    -1.4740     2.5240 ha         1 DCD       0.149000
    152 H58         -9.9170    -1.2040     3.4260 ha         1 DCD       0.137500
    153 H59        -12.3940    -1.2320     3.1510 ha         1 DCD       0.134000
    154 H60        -14.3690    -1.5880     1.7210 ha         1 DCD       0.134500
    155 H61        -14.0880    -2.2270    -0.6590 ha         1 DCD       0.134500
    156 H62        -11.8340    -2.5090    -1.6100 ha         1 DCD       0.135000
    157 H63         -9.3840    -2.4490    -1.3340 ha         1 DCD       0.152000
    158 H64         -3.7710    -0.2120     3.5300 hn         1 DCD       0.323000
@<TRIPOS>BOND
     1     1     2 1   
     2     1    95 1   
     3     1    96 1   
     4     2     3 1   
     5     2     7 1   
     6     2    97 1   
     7     3     4 1   
     8     3    98 1   
     9     3    99 1   
    10     4     5 2   
    11     4     6 1   
    12     6   100 1   
    13     7     8 2   
    14     7     9 1   
    15     9    10 1   
    16     9   101 1   
    17    10    11 1   
    18    10    93 1   
    19    10   102 1   
    20    11    12 1   
    21    11   103 1   
    22    11   104 1   
    23    12    13 1   
    24    13    14 1   
    25    14    15 1   
    26    14   105 1   
    27    14   106 1   
    28    15    16 1   
    29    15    27 1   
    30    15   107 1   
    31    16    17 2   
    32    16    18 1   
    33    18    19 1   
    34    18   108 1   
    35    19    20 1   
    36    19    24 1   
    37    19   109 1   
    38    20    21 1   
    39    20   110 1   
    40    20   111 1   
    41    21    22 2   
    42    21    23 1   
    43    23   112 1   
    44    24    25 2   
    45    24    26 1   
    46    26   113 1   
    47    27    28 1   
    48    27   114 1   
    49    28    29 2   
    50    28    30 1   
    51    30    31 1   
    52    30    45 1   
    53    30   115 1   
    54    31    32 1   
    55    31   116 1   
    56    31   117 1   
    57    32    33 2   
    58    32    34 1   
    59    34    35 1   
    60    34   118 1   
    61    35    36 ar  
    62    35    44 ar  
    63    36    37 ar  
    64    36   119 1   
    65    37    38 ar  
    66    37   120 1   
    67    38    39 ar  
    68    38    43 ar  
    69    39    40 ar  
    70    39   121 1   
    71    40    41 ar  
    72    40   122 1   
    73    41    42 ar  
    74    41   123 1   
    75    42    43 ar  
    76    42   124 1   
    77    43    44 ar  
    78    44   125 1   
    79    45    46 1   
    80    45   126 1   
    81    46    47 2   
    82    46    48 1   
    83    48    49 1   
    84    48    58 1   
    85    48   127 1   
    86    49    50 1   
    87    49   128 1   
    88    50    51 2   
    89    50    52 1   
    90    52    53 1   
    91    52    54 1   
    92    52   129 1   
    93    53   130 1   
    94    53   131 1   
    95    54    55 1   
    96    54   132 1   
    97    54   133 1   
    98    55    56 2   
    99    55    57 1   
   100    57   134 1   
   101    58    59 1   
   102    58   135 1   
   103    58   136 1   
   104    59    60 1   
   105    60    61 1   
   106    61    62 1   
   107    61   137 1   
   108    61   138 1   
   109    62    63 1   
   110    62    74 1   
   111    62   139 1   
   112    63    64 2   
   113    63    65 1   
   114    65    66 1   
   115    65   140 1   
   116    66    67 1   
   117    66    71 1   
   118    66   141 1   
   119    67    68 1   
   120    67   142 1   
   121    67   143 1   
   122    68    69 2   
   123    68    70 1   
   124    70   144 1   
   125    71    72 2   
   126    71    73 1   
   127    73   145 1   
   128    74    75 1   
   129    74   146 1   
   130    75    76 2   
   131    75    77 1   
   132    77    78 1   
   133    77    92 1   
   134    77   147 1   
   135    78    79 1   
   136    78   148 1   
   137    78   149 1   
   138    79    80 2   
   139    79    81 1   
   140    81    82 1   
   141    81   150 1   
   142    82    83 ar  
   143    82    91 ar  
   144    83    84 ar  
   145    83   151 1   
   146    84    85 ar  
   147    84   152 1   
   148    85    86 ar  
   149    85    90 ar  
   150    86    87 ar  
   151    86   153 1   
   152    87    88 ar  
   153    87   154 1   
   154    88    89 ar  
   155    88   155 1   
   156    89    90 ar  
   157    89   156 1   
   158    90    91 ar  
   159    91   157 1   
   160    92    93 1   
   161    92   158 1   
   162    93    94 2   
@<TRIPOS>SUBSTRUCTURE
     1 DCD         1 TEMP              0 ****  ****    0 ROOT
