@<TRIPOS>MOLECULE
133
  154   162     1     0     0
SMALL
bcc


@<TRIPOS>ATOM
      1 C1          10.6300    -3.1340     0.0880 c3         1 133      -0.093600
      2 C2          10.3400    -2.0220    -0.9090 c3         1 133      -0.078400
      3 C3           9.2220    -1.0780    -0.4630 c3         1 133      -0.079400
      4 C4           7.8550    -1.7550    -0.3810 c3         1 133      -0.083900
      5 C5           6.7540    -0.7560    -0.0350 c3         1 133       0.130400
      6 O1           5.5250    -1.4690     0.0350 os         1 133      -0.425600
      7 C6           4.3080    -0.7050     0.1360 c3         1 133       0.177300
      8 C7           3.9180    -0.2420    -1.2920 c3         1 133      -0.088900
      9 C8           2.6570     0.6320    -1.3360 c3         1 133      -0.070400
     10 C9           2.7320     1.8770    -0.4080 c3         1 133      -0.034500
     11 C10          3.7900     2.8410    -1.0140 c3         1 133      -0.087100
     12 C11          3.1290     1.4060     1.0260 c3         1 133      -0.051200
     13 C12          3.2420     2.5960     1.9850 c3         1 133      -0.108900
     14 C13          1.9130     3.3470     2.0710 c3         1 133       0.140600
     15 O2           2.0800     4.4910     2.9050 oh         1 133      -0.603300
     16 C14          1.3380     3.7740     0.6980 c3         1 133      -0.063200
     17 C15         -0.0150     4.5640     0.8090 c3         1 133      -0.042700
     18 C16         -1.0060     4.0510     1.8650 c3         1 133      -0.082400
     19 C17         -2.0570     5.1240     2.1870 c3         1 133      -0.079900
     20 C18         -2.4190     6.0080     0.9870 c3         1 133      -0.090900
     21 C19         -2.2730     5.2480    -0.3410 c3         1 133       0.124700
     22 N1          -3.2650     4.1570    -0.3180 n          1 133      -0.568400
     23 C20         -3.9280     3.6780    -1.4200 c          1 133       0.683100
     24 O3          -3.6420     4.0170    -2.5650 o          1 133      -0.630100
     25 C21         -5.0480     2.6950    -1.1280 c3         1 133      -0.166900
     26 C22         -4.6360     1.2460    -0.7650 c3         1 133       0.177300
     27 O4          -5.8250     0.5280    -0.3810 os         1 133      -0.425600
     28 C23         -6.7360     0.1560    -1.4130 c3         1 133       0.130400
     29 C24         -8.0840    -0.1970    -0.7840 c3         1 133      -0.083900
     30 C25         -8.0000    -1.4030     0.1540 c3         1 133      -0.079400
     31 C26         -9.3660    -1.7370     0.7530 c3         1 133      -0.078400
     32 C27         -9.2870    -2.9360     1.6840 c3         1 133      -0.093600
     33 C28         -3.7320     1.2300     0.4680 c3         1 133      -0.088900
     34 C29         -3.4870    -0.1690     1.0060 c3         1 133      -0.070400
     35 C30         -3.1090    -1.2640    -0.0400 c3         1 133      -0.034500
     36 C31         -4.1800    -2.3880     0.0750 c3         1 133      -0.087100
     37 C32         -3.1320    -0.7710    -1.5400 c3         1 133      -0.051200
     38 C33         -1.7180    -0.7150    -2.1460 c3         1 133      -0.108900
     39 C34         -1.0000    -2.0590    -2.1000 c3         1 133       0.140600
     40 O5          -1.5470    -2.9170    -3.1050 oh         1 133      -0.603300
     41 C35         -1.0990    -2.7960    -0.7430 c3         1 133      -0.063200
     42 C36          0.3030    -3.3810    -0.3430 c3         1 133      -0.042700
     43 C37          0.8320    -4.3930    -1.3820 c3         1 133      -0.082400
     44 C38          2.2590    -4.8440    -1.0950 c3         1 133      -0.079900
     45 C39          2.5290    -5.2610     0.3470 c3         1 133      -0.090900
     46 C40          1.8210    -4.4570     1.4570 c3         1 133       0.124700
     47 N2           2.7270    -3.5560     2.1900 n          1 133      -0.568400
     48 C41          3.4310    -2.4210     1.9100 c          1 133       0.683100
     49 O6           4.1570    -1.9820     2.8040 o          1 133      -0.630100
     50 C42          3.2370    -1.7290     0.5850 c3         1 133      -0.166900
     51 C43          0.3570    -3.9890     1.0930 c3         1 133      -0.063500
     52 C44         -0.5270    -5.2850     1.1540 c3         1 133      -0.094600
     53 C45         -0.2410    -2.9900     2.1210 c3         1 133       0.154100
     54 O7           0.5320    -1.7970     2.2220 oh         1 133      -0.609300
     55 C46         -1.6570    -2.5520     1.7370 c3         1 133      -0.093900
     56 C47         -1.6840    -1.8580     0.3500 c3         1 133      -0.048200
     57 C48         -3.8440     0.5670    -1.8860 c3         1 133      -0.098900
     58 C49         -0.7520     4.8270    -0.5680 c3         1 133      -0.063500
     59 C50         -0.0460     6.0520    -1.2290 c3         1 133      -0.094600
     60 C51         -0.6370     3.6120    -1.5290 c3         1 133       0.154100
     61 O8          -1.0160     3.9540    -2.8630 oh         1 133      -0.609300
     62 C52          0.7690     3.0350    -1.6440 c3         1 133      -0.093900
     63 C53          1.3180     2.5820    -0.2910 c3         1 133      -0.048200
     64 C54          4.4010     0.5390     1.0540 c3         1 133      -0.098900
     65 H1           9.7860    -3.8240     0.1760 hc         1 133       0.033367
     66 H2          11.4990    -3.7140    -0.2400 hc         1 133       0.033367
     67 H3          10.8500    -2.7250     1.0790 hc         1 133       0.033367
     68 H4          11.2550    -1.4340    -1.0500 hc         1 133       0.038450
     69 H5          10.0920    -2.4600    -1.8830 hc         1 133       0.038450
     70 H6           9.1690    -0.2480    -1.1790 hc         1 133       0.040700
     71 H7           9.4770    -0.6390     0.5100 hc         1 133       0.040700
     72 H8           7.8600    -2.5510     0.3730 hc         1 133       0.053950
     73 H9           7.6140    -2.2420    -1.3340 hc         1 133       0.053950
     74 H10          6.7090     0.0270    -0.7980 h1         1 133       0.028950
     75 H11          6.9680    -0.3030     0.9390 h1         1 133       0.028950
     76 H12          3.7720    -1.1170    -1.9410 hc         1 133       0.049700
     77 H13          4.7500     0.2980    -1.7570 hc         1 133       0.049700
     78 H14          1.7790     0.0280    -1.0780 hc         1 133       0.047200
     79 H15          2.5080     0.9400    -2.3780 hc         1 133       0.047200
     80 H16          3.8600     3.7920    -0.4800 hc         1 133       0.036533
     81 H17          3.5610     3.0750    -2.0590 hc         1 133       0.036533
     82 H18          4.7960     2.4110    -1.0070 hc         1 133       0.036533
     83 H19          2.3130     0.7800     1.4130 hc         1 133       0.058200
     84 H20          3.5120     2.2450     2.9900 hc         1 133       0.051950
     85 H21          4.0530     3.2730     1.6960 hc         1 133       0.051950
     86 H22          1.2060     2.6770     2.5730 h1         1 133       0.055200
     87 H23          2.7780     5.0450     2.5160 ho         1 133       0.398500
     88 H24          2.0350     4.5200     0.2920 hc         1 133       0.059200
     89 H25          0.2950     5.5490     1.1960 hc         1 133       0.054200
     90 H26         -1.4820     3.1300     1.5150 hc         1 133       0.051450
     91 H27         -0.5240     3.8020     2.8130 hc         1 133       0.051450
     92 H28         -1.6880     5.7710     2.9920 hc         1 133       0.041450
     93 H29         -2.9540     4.6330     2.5840 hc         1 133       0.041450
     94 H30         -1.7770     6.8960     0.9830 hc         1 133       0.050700
     95 H31         -3.4450     6.3760     1.1110 hc         1 133       0.050700
     96 H32         -2.5800     5.9140    -1.1570 h1         1 133       0.056200
     97 H33         -3.6500     3.9050     0.5840 hn         1 133       0.308500
     98 H34         -5.6980     2.7010    -2.0110 hc         1 133       0.081450
     99 H35         -5.6690     3.1140    -0.3240 hc         1 133       0.081450
    100 H36         -6.8890     0.9740    -2.1220 h1         1 133       0.028950
    101 H37         -6.3400    -0.7070    -1.9570 h1         1 133       0.028950
    102 H38         -8.4510     0.6670    -0.2170 hc         1 133       0.053950
    103 H39         -8.8070    -0.4010    -1.5830 hc         1 133       0.053950
    104 H40         -7.2890    -1.2000     0.9630 hc         1 133       0.040700
    105 H41         -7.6230    -2.2710    -0.4000 hc         1 133       0.040700
    106 H42        -10.0830    -1.9500    -0.0480 hc         1 133       0.038450
    107 H43         -9.7490    -0.8740     1.3100 hc         1 133       0.038450
    108 H44         -8.9370    -3.8250     1.1500 hc         1 133       0.033367
    109 H45         -8.6020    -2.7430     2.5160 hc         1 133       0.033367
    110 H46        -10.2740    -3.1580     2.1020 hc         1 133       0.033367
    111 H47         -2.7590     1.6750     0.2400 hc         1 133       0.049700
    112 H48         -4.1810     1.8200     1.2780 hc         1 133       0.049700
    113 H49         -2.7020    -0.0570     1.7630 hc         1 133       0.047200
    114 H50         -4.3750    -0.4770     1.5740 hc         1 133       0.047200
    115 H51         -3.9240    -3.2610    -0.5340 hc         1 133       0.036533
    116 H52         -4.3160    -2.7290     1.1060 hc         1 133       0.036533
    117 H53         -5.1540    -2.0360    -0.2700 hc         1 133       0.036533
    118 H54         -3.6660    -1.5340    -2.1260 hc         1 133       0.058200
    119 H55         -1.7850    -0.3860    -3.1910 hc         1 133       0.051950
    120 H56         -1.1220     0.0400    -1.6160 hc         1 133       0.051950
    121 H57          0.0450    -1.8760    -2.3760 h1         1 133       0.055200
    122 H58         -1.4170    -2.4810    -3.9650 ho         1 133       0.398500
    123 H59         -1.7760    -3.6500    -0.8630 hc         1 133       0.059200
    124 H60          0.9790    -2.5270    -0.3700 hc         1 133       0.054200
    125 H61          0.8280    -3.9600    -2.3880 hc         1 133       0.051450
    126 H62          0.1710    -5.2650    -1.4400 hc         1 133       0.051450
    127 H63          2.5040    -5.6850    -1.7570 hc         1 133       0.041450
    128 H64          2.9510    -4.0510    -1.3910 hc         1 133       0.041450
    129 H65          3.6130    -5.2860     0.5190 hc         1 133       0.050700
    130 H66          2.2030    -6.3070     0.4380 hc         1 133       0.050700
    131 H67          1.6680    -5.2060     2.2510 h1         1 133       0.056200
    132 H68          2.9740    -3.8650     3.1230 hn         1 133       0.308500
    133 H69          2.2610    -1.2500     0.6230 hc         1 133       0.081450
    134 H70          3.2140    -2.5140    -0.1650 hc         1 133       0.081450
    135 H71         -0.0870    -6.1190     0.6000 hc         1 133       0.041533
    136 H72         -1.5300    -5.1380     0.7480 hc         1 133       0.041533
    137 H73         -0.6420    -5.6250     2.1910 hc         1 133       0.041533
    138 H74         -0.2560    -3.4540     3.1160 h1         1 133       0.032700
    139 H75          0.3350    -1.3930     3.0860 ho         1 133       0.416000
    140 H76         -2.3330    -3.4110     1.7600 hc         1 133       0.053700
    141 H77         -2.0150    -1.8640     2.5100 hc         1 133       0.053700
    142 H78         -1.0060    -0.9940     0.4220 hc         1 133       0.052700
    143 H79         -4.4860     0.3950    -2.7590 hc         1 133       0.062200
    144 H80         -3.0870     1.2780    -2.2410 hc         1 133       0.062200
    145 H81         -0.1060     6.9410    -0.5910 hc         1 133       0.041533
    146 H82         -0.5070     6.3170    -2.1870 hc         1 133       0.041533
    147 H83          1.0160     5.8640    -1.4130 hc         1 133       0.041533
    148 H84         -1.2850     2.7960    -1.1960 h1         1 133       0.032700
    149 H85         -1.9870     4.0950    -2.8790 ho         1 133       0.416000
    150 H86          0.7220     2.1910    -2.3420 hc         1 133       0.053700
    151 H87          1.4330     3.7640    -2.1210 hc         1 133       0.053700
    152 H88          0.6150     1.8360     0.1100 hc         1 133       0.052700
    153 H89          4.6290     0.2420     2.0820 hc         1 133       0.062200
    154 H90          5.2530     1.1640     0.7620 hc         1 133       0.062200
@<TRIPOS>BOND
     1     1     2 1   
     2     1    65 1   
     3     1    66 1   
     4     1    67 1   
     5     2     3 1   
     6     2    68 1   
     7     2    69 1   
     8     3     4 1   
     9     3    70 1   
    10     3    71 1   
    11     4     5 1   
    12     4    72 1   
    13     4    73 1   
    14     5     6 1   
    15     5    74 1   
    16     5    75 1   
    17     6     7 1   
    18     7     8 1   
    19     7    50 1   
    20     7    64 1   
    21     8     9 1   
    22     8    76 1   
    23     8    77 1   
    24     9    10 1   
    25     9    78 1   
    26     9    79 1   
    27    10    11 1   
    28    10    12 1   
    29    10    63 1   
    30    11    80 1   
    31    11    81 1   
    32    11    82 1   
    33    12    13 1   
    34    12    64 1   
    35    12    83 1   
    36    13    14 1   
    37    13    84 1   
    38    13    85 1   
    39    14    15 1   
    40    14    16 1   
    41    14    86 1   
    42    15    87 1   
    43    16    17 1   
    44    16    63 1   
    45    16    88 1   
    46    17    18 1   
    47    17    58 1   
    48    17    89 1   
    49    18    19 1   
    50    18    90 1   
    51    18    91 1   
    52    19    20 1   
    53    19    92 1   
    54    19    93 1   
    55    20    21 1   
    56    20    94 1   
    57    20    95 1   
    58    21    22 1   
    59    21    58 1   
    60    21    96 1   
    61    22    23 1   
    62    22    97 1   
    63    23    24 2   
    64    23    25 1   
    65    25    26 1   
    66    25    98 1   
    67    25    99 1   
    68    26    27 1   
    69    26    33 1   
    70    26    57 1   
    71    27    28 1   
    72    28    29 1   
    73    28   100 1   
    74    28   101 1   
    75    29    30 1   
    76    29   102 1   
    77    29   103 1   
    78    30    31 1   
    79    30   104 1   
    80    30   105 1   
    81    31    32 1   
    82    31   106 1   
    83    31   107 1   
    84    32   108 1   
    85    32   109 1   
    86    32   110 1   
    87    33    34 1   
    88    33   111 1   
    89    33   112 1   
    90    34    35 1   
    91    34   113 1   
    92    34   114 1   
    93    35    36 1   
    94    35    37 1   
    95    35    56 1   
    96    36   115 1   
    97    36   116 1   
    98    36   117 1   
    99    37    38 1   
   100    37    57 1   
   101    37   118 1   
   102    38    39 1   
   103    38   119 1   
   104    38   120 1   
   105    39    40 1   
   106    39    41 1   
   107    39   121 1   
   108    40   122 1   
   109    41    42 1   
   110    41    56 1   
   111    41   123 1   
   112    42    43 1   
   113    42    51 1   
   114    42   124 1   
   115    43    44 1   
   116    43   125 1   
   117    43   126 1   
   118    44    45 1   
   119    44   127 1   
   120    44   128 1   
   121    45    46 1   
   122    45   129 1   
   123    45   130 1   
   124    46    47 1   
   125    46    51 1   
   126    46   131 1   
   127    47    48 1   
   128    47   132 1   
   129    48    49 2   
   130    48    50 1   
   131    50   133 1   
   132    50   134 1   
   133    51    52 1   
   134    51    53 1   
   135    52   135 1   
   136    52   136 1   
   137    52   137 1   
   138    53    54 1   
   139    53    55 1   
   140    53   138 1   
   141    54   139 1   
   142    55    56 1   
   143    55   140 1   
   144    55   141 1   
   145    56   142 1   
   146    57   143 1   
   147    57   144 1   
   148    58    59 1   
   149    58    60 1   
   150    59   145 1   
   151    59   146 1   
   152    59   147 1   
   153    60    61 1   
   154    60    62 1   
   155    60   148 1   
   156    61   149 1   
   157    62    63 1   
   158    62   150 1   
   159    62   151 1   
   160    63   152 1   
   161    64   153 1   
   162    64   154 1   
@<TRIPOS>SUBSTRUCTURE
     1 133         1 TEMP              0 ****  ****    0 ROOT
