@<TRIPOS>MOLECULE
172
   75    80     1     0     0
SMALL
bcc


@<TRIPOS>ATOM
      1 O           -3.4410    -1.1940    -2.7410 oh         0 172      -0.506000
      2 C           -3.7110    -0.5660    -1.5650 ca         0 172       0.101500
      3 C1          -3.6900     0.8190    -1.4970 ca         0 172      -0.126300
      4 C2          -3.9650     1.4570    -0.3030 ca         0 172      -0.112300
      5 C3          -4.2750     0.7120     0.8250 ca         0 172       0.101500
      6 O1          -4.5600     1.3400     1.9970 oh         0 172      -0.506000
      7 C4          -4.2970    -0.6730     0.7570 ca         0 172      -0.126300
      8 C5          -4.0120    -1.3110    -0.4340 ca         0 172      -0.112300
      9 C6          -4.0040    -2.8170    -0.5000 c3         0 172       0.008800
     10 C7          -2.6010    -3.3120    -0.2570 ca         0 172      -0.112300
     11 C8          -1.7070    -3.3960    -1.3070 ca         0 172      -0.126300
     12 C9          -0.4120    -3.8400    -1.0810 ca         0 172       0.101500
     13 O2           0.4680    -3.9220    -2.1140 oh         0 172      -0.506000
     14 C10         -0.0160    -4.2010     0.1980 ca         0 172      -0.112300
     15 C11          1.3950    -4.6720     0.4440 c3         0 172       0.008800
     16 C12          2.3270    -3.4880     0.3940 ca         0 172      -0.112300
     17 C13          2.7580    -2.9980    -0.8240 ca         0 172      -0.126300
     18 C14          3.6050    -1.9010    -0.8710 ca         0 172       0.101500
     19 O3           4.0270    -1.4190    -2.0700 oh         0 172      -0.506000
     20 C15          4.0220    -1.2970     0.3050 ca         0 172      -0.112300
     21 C16          4.9270    -0.0910     0.2540 c3         0 172       0.008800
     22 C17          4.0770     1.1540     0.1990 ca         0 172      -0.112300
     23 C18          3.6110     1.6200    -1.0220 ca         0 172       0.101500
     24 O4           3.9340     0.9630    -2.1680 oh         0 172      -0.506000
     25 C19          2.8160     2.7550    -1.0730 ca         0 172      -0.126300
     26 C20          2.4900     3.4230     0.0920 ca         0 172      -0.112300
     27 C21          1.6100     4.6460     0.0370 c3         0 172       0.008800
     28 C22          0.1670     4.2140    -0.0320 ca         0 172      -0.112300
     29 C23         -0.4420     4.0210    -1.2630 ca         0 172       0.101500
     30 O5           0.2610     4.2280    -2.4080 oh         0 172      -0.506000
     31 C24         -1.7680     3.6180    -1.3250 ca         0 172      -0.126300
     32 C25         -2.4820     3.4090    -0.1610 ca         0 172      -0.112300
     33 C26         -3.9150     2.9610    -0.2240 c3         0 172       0.008800
     34 C27         -1.8740     3.6070     1.0700 ca         0 172       0.101500
     35 O6          -2.5790     3.4060     2.2150 oh         0 172      -0.506000
     36 C28         -0.5480     4.0090     1.1320 ca         0 172      -0.126300
     37 C29          2.9680     2.9650     1.3110 ca         0 172       0.101500
     38 O7           2.6580     3.6300     2.4560 oh         0 172      -0.506000
     39 C30          3.7630     1.8290     1.3620 ca         0 172      -0.126300
     40 C31          3.6020    -1.7940     1.5240 ca         0 172      -0.126300
     41 C32          2.7540    -2.8900     1.5710 ca         0 172       0.101500
     42 O8           2.3400    -3.3790     2.7700 oh         0 172      -0.506000
     43 C33         -0.9120    -4.1260     1.2460 ca         0 172      -0.126300
     44 C34         -2.2070    -3.6810     1.0210 ca         0 172       0.101500
     45 O9          -3.0900    -3.6070     2.0530 oh         0 172      -0.506000
     46 H           -2.4860    -1.3470    -2.7630 ho         0 172       0.425600
     47 H1          -3.4590     1.3990    -2.3790 ha         0 172       0.150300
     48 H2          -5.5140     1.4940     2.0070 ho         0 172       0.425600
     49 H3          -4.5390    -1.2530     1.6360 ha         0 172       0.150300
     50 H4          -4.6700    -3.2200     0.2630 hc         0 172       0.063300
     51 H5          -4.3390    -3.1410    -1.4860 hc         0 172       0.063300
     52 H6          -2.0160    -3.1160    -2.3030 ha         0 172       0.150300
     53 H7           0.4130    -4.8230    -2.4580 ho         0 172       0.425600
     54 H8           1.4570    -5.1420     1.4250 hc         0 172       0.063300
     55 H9           1.6790    -5.3910    -0.3250 hc         0 172       0.063300
     56 H10          2.4340    -3.4700    -1.7400 ha         0 172       0.150300
     57 H11          4.7980    -1.9440    -2.3270 ho         0 172       0.425600
     58 H12          5.5530    -0.0670     1.1460 hc         0 172       0.063300
     59 H13          5.5560    -0.1440    -0.6340 hc         0 172       0.063300
     60 H14          3.1940     0.3740    -2.3710 ho         0 172       0.425600
     61 H15          2.4520     3.1170    -2.0230 ha         0 172       0.150300
     62 H16          1.7680     5.2480     0.9320 hc         0 172       0.063300
     63 H17          1.8570     5.2330    -0.8470 hc         0 172       0.063300
     64 H18          0.6740     3.3840    -2.6380 ho         0 172       0.425600
     65 H19         -2.2420     3.4680    -2.2840 ha         0 172       0.150300
     66 H20         -4.3900     3.3840    -1.1100 hc         0 172       0.063300
     67 H21         -4.4410     3.2980     0.6680 hc         0 172       0.063300
     68 H22         -2.4550     2.4790     2.4610 ho         0 172       0.425600
     69 H23         -0.0750     4.1630     2.0910 ha         0 172       0.150300
     70 H24          1.8380     3.2420     2.7910 ho         0 172       0.425600
     71 H25          4.1350     1.4720     2.3110 ha         0 172       0.150300
     72 H26          3.9350    -1.3290     2.4400 ha         0 172       0.150300
     73 H27          1.5220    -2.9130     2.9940 ho         0 172       0.425600
     74 H28         -0.6060    -4.4140     2.2410 ha         0 172       0.150300
     75 H29         -3.0010    -2.7220     2.4330 ho         0 172       0.425600
@<TRIPOS>BOND
     1     1     2 1   
     2     1    46 1   
     3     2     3 ar  
     4     2     8 ar  
     5     3     4 ar  
     6     3    47 1   
     7     4     5 ar  
     8     4    33 1   
     9     5     6 1   
    10     5     7 ar  
    11     6    48 1   
    12     7     8 ar  
    13     7    49 1   
    14     8     9 1   
    15     9    10 1   
    16     9    50 1   
    17     9    51 1   
    18    10    11 ar  
    19    10    44 ar  
    20    11    12 ar  
    21    11    52 1   
    22    12    13 1   
    23    12    14 ar  
    24    13    53 1   
    25    14    15 1   
    26    14    43 ar  
    27    15    16 1   
    28    15    54 1   
    29    15    55 1   
    30    16    17 ar  
    31    16    41 ar  
    32    17    18 ar  
    33    17    56 1   
    34    18    19 1   
    35    18    20 ar  
    36    19    57 1   
    37    20    21 1   
    38    20    40 ar  
    39    21    22 1   
    40    21    58 1   
    41    21    59 1   
    42    22    23 ar  
    43    22    39 ar  
    44    23    24 1   
    45    23    25 ar  
    46    24    60 1   
    47    25    26 ar  
    48    25    61 1   
    49    26    27 1   
    50    26    37 ar  
    51    27    28 1   
    52    27    62 1   
    53    27    63 1   
    54    28    29 ar  
    55    28    36 ar  
    56    29    30 1   
    57    29    31 ar  
    58    30    64 1   
    59    31    32 ar  
    60    31    65 1   
    61    32    33 1   
    62    32    34 ar  
    63    33    66 1   
    64    33    67 1   
    65    34    35 1   
    66    34    36 ar  
    67    35    68 1   
    68    36    69 1   
    69    37    38 1   
    70    37    39 ar  
    71    38    70 1   
    72    39    71 1   
    73    40    41 ar  
    74    40    72 1   
    75    41    42 1   
    76    42    73 1   
    77    43    44 ar  
    78    43    74 1   
    79    44    45 1   
    80    45    75 1   
@<TRIPOS>SUBSTRUCTURE
     1 172         1 TEMP              0 ****  ****    0 ROOT
