@<TRIPOS>MOLECULE
66
  140   152     1     0     0
SMALL
bcc


@<TRIPOS>ATOM
      1 C            0.2760    -4.5820    -0.5800 c3         0 66       -0.089100
      2 C1           0.3430    -5.8070     0.3350 c3         0 66        0.092600
      3 C2           0.3150    -5.3190     1.7850 c3         0 66       -0.089100
      4 C3          -0.8810    -6.6370     0.0960 cc         0 66       -0.119600
      5 C4          -0.9850    -7.9680    -0.0630 cd         0 66       -0.182000
      6 C5          -2.3510    -8.2810    -0.2080 cd         0 66       -0.174000
      7 C6          -3.0410    -7.1160    -0.1390 cc         0 66       -0.082300
      8 N           -2.1370    -6.0930     0.0120 na         0 66       -0.164100
      9 C7          -4.5100    -6.8900    -0.1900 ca         0 66       -0.007000
     10 C8          -4.9460    -5.5680    -0.1540 ca         0 66       -0.131000
     11 C9          -6.3140    -5.2880    -0.1950 ca         0 66       -0.010000
     12 C10         -7.2340    -6.3330    -0.2700 ca         0 66       -0.114000
     13 C11         -6.7880    -7.6460    -0.3020 ca         0 66       -0.126000
     14 C12         -5.4330    -7.9300    -0.2660 ca         0 66       -0.114000
     15 C13         -6.7090    -3.8550    -0.1330 cc         0 66       -0.084300
     16 C14         -7.9480    -3.3100    -0.1970 cd         0 66       -0.175000
     17 C15         -7.8040    -1.9160    -0.0470 cd         0 66       -0.186000
     18 C16         -6.4940    -1.6520     0.1010 cc         0 66       -0.104600
     19 N1          -5.8020    -2.8310     0.0060 na         0 66       -0.158100
     20 C17         -5.8190    -0.3420     0.3790 c3         0 66        0.093600
     21 C18         -5.3920    -0.3260     1.8480 c3         0 66       -0.089100
     22 C19         -4.5570    -0.2610    -0.4830 c3         0 66       -0.089100
     23 C20         -6.6390     0.8830     0.1160 cc         0 66       -0.120600
     24 C21         -7.9700     0.9840    -0.0650 cd         0 66       -0.182000
     25 C22         -8.2850     2.3470    -0.2190 cd         0 66       -0.174000
     26 C23         -7.1240     3.0380    -0.1380 cc         0 66       -0.081300
     27 N2          -6.0990     2.1410     0.0290 na         0 66       -0.164100
     28 C24         -6.8930     4.5040    -0.1850 ca         0 66       -0.007000
     29 C25         -5.5710     4.9360    -0.1490 ca         0 66       -0.132000
     30 C26         -5.2930     6.3080    -0.1860 ca         0 66       -0.008000
     31 C27         -6.3430     7.2220    -0.2560 ca         0 66       -0.114000
     32 C28         -7.6560     6.7750    -0.2880 ca         0 66       -0.125000
     33 C29         -7.9340     5.4210    -0.2560 ca         0 66       -0.114000
     34 C30         -3.8600     6.7010    -0.1270 cc         0 66       -0.084300
     35 C31         -3.3140     7.9420    -0.1850 cd         0 66       -0.174000
     36 C32         -1.9190     7.7970    -0.0430 cd         0 66       -0.186000
     37 C33         -1.6560     6.4860     0.0940 cc         0 66       -0.104600
     38 N3          -2.8350     5.7940     0.0020 na         0 66       -0.158100
     39 C34         -0.3460     5.8030     0.3580 c3         0 66        0.092600
     40 C35         -0.3250     5.3580     1.8220 c3         0 66       -0.088600
     41 C36         -0.2700     4.5530    -0.5210 c3         0 66       -0.088600
     42 C37          0.8760     6.6290     0.1000 cc         0 66       -0.119600
     43 C38          0.9750     7.9600    -0.0750 cd         0 66       -0.183000
     44 C39          2.3380     8.2770    -0.2300 cd         0 66       -0.174000
     45 C40          3.0310     7.1150    -0.1520 cc         0 66       -0.081300
     46 N4           2.1330     6.0890     0.0130 na         0 66       -0.164100
     47 C41          4.4970     6.8880    -0.2050 ca         0 66       -0.005000
     48 C42          4.9360     5.5680    -0.1690 ca         0 66       -0.135000
     49 C43          6.3080     5.2960    -0.2100 ca         0 66       -0.004000
     50 C44          7.2200     6.3450    -0.2870 ca         0 66       -0.117000
     51 C45          6.7690     7.6570    -0.3200 ca         0 66       -0.125000
     52 C46          5.4140     7.9320    -0.2820 ca         0 66       -0.116000
     53 C47          6.7080     3.8660    -0.1440 cc         0 66       -0.094300
     54 C48          7.9480     3.3230    -0.2140 cd         0 66       -0.173000
     55 C49          7.8080     1.9300    -0.0500 cd         0 66       -0.197000
     56 C50          6.5000     1.6660     0.1130 cc         0 66       -0.099600
     57 N5           5.8040     2.8410     0.0060 na         0 66       -0.161100
     58 C51          5.8290     0.3610     0.4190 c3         0 66        0.097600
     59 C52          5.4450     0.3580     1.9000 c3         0 66       -0.082100
     60 C53          4.5410     0.2830    -0.4040 c3         0 66       -0.082100
     61 C54          6.6310    -0.8730     0.1420 cc         0 66       -0.164300
     62 C55          7.9540    -1.0010    -0.0720 cd         0 66       -0.134300
     63 N6           8.2450    -2.3270    -0.2390 na         0 66       -0.168100
     64 C56          7.0880    -3.0390    -0.1300 cd         0 66       -0.086300
     65 C57          6.0630    -2.1630     0.0800 cc         0 66       -0.164000
     66 C58          6.8700    -4.5090    -0.1870 ca         0 66       -0.004000
     67 C59          5.5510    -4.9480    -0.1390 ca         0 66       -0.118000
     68 C60          5.2840    -6.3190    -0.1840 ca         0 66       -0.005000
     69 C61          6.3320    -7.2320    -0.2690 ca         0 66       -0.116000
     70 C62          7.6420    -6.7790    -0.3090 ca         0 66       -0.123000
     71 C63          7.9150    -5.4230    -0.2730 ca         0 66       -0.134000
     72 C64          3.8550    -6.7230    -0.1220 cc         0 66       -0.084300
     73 C65          3.3050    -7.9580    -0.1880 cd         0 66       -0.173000
     74 C66          1.9120    -7.8060    -0.0460 cd         0 66       -0.186000
     75 C67          1.6520    -6.4970     0.0980 cc         0 66       -0.103600
     76 N7           2.8370    -5.8090     0.0220 na         0 66       -0.156100
     77 H            1.1310    -3.9350    -0.3850 hc         0 66        0.042200
     78 H1           0.2940    -4.9050    -1.6210 hc         0 66        0.042200
     79 H2          -0.6460    -4.0340    -0.3860 hc         0 66        0.042200
     80 H3          -0.6070    -4.7660     1.9640 hc         0 66        0.042200
     81 H4           0.3620    -6.1750     2.4570 hc         0 66        0.042200
     82 H5           1.1700    -4.6670     1.9660 hc         0 66        0.042200
     83 H6          -0.1660    -8.6720    -0.0780 ha         0 66        0.161000
     84 H7          -2.7710    -9.2670    -0.3490 ha         0 66        0.153000
     85 H8          -2.3510    -5.1480     0.0520 hn         0 66        0.293700
     86 H9          -4.2290    -4.7630    -0.0950 ha         0 66        0.128000
     87 H10         -8.2920    -6.1200    -0.3030 ha         0 66        0.142000
     88 H11         -7.5040    -8.4540    -0.3560 ha         0 66        0.136000
     89 H12         -5.0930    -8.9550    -0.2970 ha         0 66        0.142000
     90 H13         -8.8760    -3.8450    -0.3380 ha         0 66        0.153000
     91 H14         -8.6030    -1.1890    -0.0510 ha         0 66        0.153000
     92 H15         -4.8370    -2.9270     0.0330 hn         0 66        0.299700
     93 H16         -4.7030    -1.1490     2.0350 hc         0 66        0.042200
     94 H17         -4.8980     0.6190     2.0730 hc         0 66        0.042200
     95 H18         -6.2720    -0.4370     2.4830 hc         0 66        0.042200
     96 H19         -4.8320    -0.3250    -1.5360 hc         0 66        0.042200
     97 H20         -4.0490     0.6850    -0.2960 hc         0 66        0.042200
     98 H21         -3.8910    -1.0860    -0.2310 hc         0 66        0.042200
     99 H22         -8.6710     0.1630    -0.0880 ha         0 66        0.161000
    100 H23         -9.2700     2.7640    -0.3740 ha         0 66        0.154000
    101 H24         -5.1550     2.3590     0.0780 hn         0 66        0.293700
    102 H25         -4.7660     4.2190    -0.0940 ha         0 66        0.127000
    103 H26         -6.1330     8.2810    -0.2840 ha         0 66        0.142000
    104 H27         -8.4660     7.4880    -0.3380 ha         0 66        0.136000
    105 H28         -8.9580     5.0770    -0.2860 ha         0 66        0.142000
    106 H29         -3.8500     8.8700    -0.3170 ha         0 66        0.153000
    107 H30         -1.1930     8.5950    -0.0440 ha         0 66        0.153000
    108 H31         -2.9300     4.8290     0.0240 hn         0 66        0.299700
    109 H32         -1.1490     4.6690     2.0050 hc         0 66        0.042200
    110 H33          0.6200     4.8580     2.0360 hc         0 66        0.042200
    111 H34         -0.4290     6.2290     2.4680 hc         0 66        0.042200
    112 H35         -0.3360     4.8430    -1.5700 hc         0 66        0.042200
    113 H36          0.6750     4.0410    -0.3440 hc         0 66        0.042200
    114 H37         -1.0960     3.8860    -0.2760 hc         0 66        0.042200
    115 H38          0.1530     8.6610    -0.0940 ha         0 66        0.161000
    116 H39          2.7540     9.2610    -0.3830 ha         0 66        0.153000
    117 H40          2.3510     5.1450     0.0600 hn         0 66        0.294700
    118 H41          4.2220     4.7600    -0.1090 ha         0 66        0.126000
    119 H42          8.2790     6.1380    -0.3210 ha         0 66        0.141000
    120 H43          7.4800     8.4680    -0.3750 ha         0 66        0.135000
    121 H44          5.0680     8.9550    -0.3130 ha         0 66        0.141000
    122 H45          8.8730     3.8590    -0.3670 ha         0 66        0.152000
    123 H46          8.6090     1.2050    -0.0550 ha         0 66        0.154000
    124 H47          4.8390     2.9340     0.0320 hn         0 66        0.297700
    125 H48          4.7650     1.1860     2.1010 hc         0 66        0.039367
    126 H49          4.9540    -0.5830     2.1460 hc         0 66        0.039367
    127 H50          6.3430     0.4690     2.5080 hc         0 66        0.039367
    128 H51          4.7840     0.3400    -1.4650 hc         0 66        0.039367
    129 H52          4.0340    -0.6600    -0.1970 hc         0 66        0.039367
    130 H53          3.8880     1.1130    -0.1360 hc         0 66        0.039367
    131 H54          8.6670    -0.1910    -0.1060 h4         0 66        0.178000
    132 H55          9.1250    -2.6970    -0.4060 hn         0 66        0.296700
    133 H56          5.0170    -2.4100     0.1790 ha         0 66        0.153000
    134 H57          4.7410    -4.2370    -0.0680 ha         0 66        0.137000
    135 H58          6.1240    -8.2910    -0.3020 ha         0 66        0.142000
    136 H59          8.4530    -7.4890    -0.3690 ha         0 66        0.134000
    137 H60          8.9360    -5.0750    -0.3120 ha         0 66        0.129000
    138 H61          3.8370    -8.8880    -0.3250 ha         0 66        0.153000
    139 H62          1.1810    -8.6010    -0.0570 ha         0 66        0.153000
    140 H63          2.9380    -4.8450     0.0580 hn         0 66        0.298700
@<TRIPOS>BOND
     1     1     2 1   
     2     1    77 1   
     3     1    78 1   
     4     1    79 1   
     5     2     3 1   
     6     2     4 1   
     7     2    75 1   
     8     3    80 1   
     9     3    81 1   
    10     3    82 1   
    11     4     5 2   
    12     4     8 1   
    13     5     6 1   
    14     5    83 1   
    15     6     7 2   
    16     6    84 1   
    17     7     8 1   
    18     7     9 1   
    19     8    85 1   
    20     9    10 ar  
    21     9    14 ar  
    22    10    11 ar  
    23    10    86 1   
    24    11    12 ar  
    25    11    15 1   
    26    12    13 ar  
    27    12    87 1   
    28    13    14 ar  
    29    13    88 1   
    30    14    89 1   
    31    15    16 2   
    32    15    19 1   
    33    16    17 1   
    34    16    90 1   
    35    17    18 2   
    36    17    91 1   
    37    18    19 1   
    38    18    20 1   
    39    19    92 1   
    40    20    21 1   
    41    20    22 1   
    42    20    23 1   
    43    21    93 1   
    44    21    94 1   
    45    21    95 1   
    46    22    96 1   
    47    22    97 1   
    48    22    98 1   
    49    23    24 2   
    50    23    27 1   
    51    24    25 1   
    52    24    99 1   
    53    25    26 2   
    54    25   100 1   
    55    26    27 1   
    56    26    28 1   
    57    27   101 1   
    58    28    29 ar  
    59    28    33 ar  
    60    29    30 ar  
    61    29   102 1   
    62    30    31 ar  
    63    30    34 1   
    64    31    32 ar  
    65    31   103 1   
    66    32    33 ar  
    67    32   104 1   
    68    33   105 1   
    69    34    35 2   
    70    34    38 1   
    71    35    36 1   
    72    35   106 1   
    73    36    37 2   
    74    36   107 1   
    75    37    38 1   
    76    37    39 1   
    77    38   108 1   
    78    39    40 1   
    79    39    41 1   
    80    39    42 1   
    81    40   109 1   
    82    40   110 1   
    83    40   111 1   
    84    41   112 1   
    85    41   113 1   
    86    41   114 1   
    87    42    43 2   
    88    42    46 1   
    89    43    44 1   
    90    43   115 1   
    91    44    45 2   
    92    44   116 1   
    93    45    46 1   
    94    45    47 1   
    95    46   117 1   
    96    47    48 ar  
    97    47    52 ar  
    98    48    49 ar  
    99    48   118 1   
   100    49    50 ar  
   101    49    53 1   
   102    50    51 ar  
   103    50   119 1   
   104    51    52 ar  
   105    51   120 1   
   106    52   121 1   
   107    53    54 2   
   108    53    57 1   
   109    54    55 1   
   110    54   122 1   
   111    55    56 2   
   112    55   123 1   
   113    56    57 1   
   114    56    58 1   
   115    57   124 1   
   116    58    59 1   
   117    58    60 1   
   118    58    61 1   
   119    59   125 1   
   120    59   126 1   
   121    59   127 1   
   122    60   128 1   
   123    60   129 1   
   124    60   130 1   
   125    61    62 2   
   126    61    65 1   
   127    62    63 1   
   128    62   131 1   
   129    63    64 1   
   130    63   132 1   
   131    64    65 2   
   132    64    66 1   
   133    65   133 1   
   134    66    67 ar  
   135    66    71 ar  
   136    67    68 ar  
   137    67   134 1   
   138    68    69 ar  
   139    68    72 1   
   140    69    70 ar  
   141    69   135 1   
   142    70    71 ar  
   143    70   136 1   
   144    71   137 1   
   145    72    73 2   
   146    72    76 1   
   147    73    74 1   
   148    73   138 1   
   149    74    75 2   
   150    74   139 1   
   151    75    76 1   
   152    76   140 1   
@<TRIPOS>SUBSTRUCTURE
     1 66          1 TEMP              0 ****  ****    0 ROOT
