@<TRIPOS>MOLECULE
ASB
   92    96     1     0     0
SMALL
bcc


@<TRIPOS>ATOM
      1 C           -4.6780    -1.8390    -2.4980 c3         0 ASB      -0.058050
      2 C1          -4.8450    -0.9720    -1.2770 ca         0 ASB      -0.075300
      3 C2          -4.9280     0.4020    -1.4170 ca         0 ASB      -0.075300
      4 C3          -4.8560     1.0320    -2.7840 c3         0 ASB      -0.058050
      5 C4          -5.0780     1.1950    -0.2870 ca         0 ASB      -0.094300
      6 C5          -5.1310     0.6130     0.9570 ca         0 ASB      -0.075300
      7 C6          -5.2770     1.4810     2.1810 c3         0 ASB      -0.058050
      8 C7          -5.0530    -0.7610     1.1000 ca         0 ASB      -0.075300
      9 C8          -5.1190    -1.3900     2.4670 c3         0 ASB      -0.058050
     10 C9          -4.9200    -1.5540    -0.0310 ca         0 ASB      -0.094300
     11 C10         -4.8350    -3.0540     0.1360 c3         0 ASB       0.149800
     12 N           -3.4430    -3.3730     0.5220 n          0 ASB      -0.574400
     13 C11         -2.5950    -3.6980    -0.4930 c          0 ASB       0.706300
     14 O           -3.0290    -3.9450    -1.6010 o          0 ASB      -0.738600
     15 C12         -1.1420    -3.7470    -0.2320 cc         0 ASB      -0.280400
     16 C13         -0.2390    -3.8910    -1.2890 cd         0 ASB      -0.256200
     17 C14          1.1200    -3.8650    -1.0420 c          0 ASB       0.479000
     18 O1           1.9980    -3.9910    -2.0700 o          0 ASB      -0.870600
     19 C15          1.5950    -3.7100     0.2670 cc         0 ASB      -0.280400
     20 C16          0.6920    -3.6820     1.3350 cd         0 ASB      -0.256200
     21 C17         -0.6660    -3.6900     1.0860 c          0 ASB       0.479000
     22 O2          -1.5440    -3.6430     2.1210 o          0 ASB      -0.870600
     23 C18          3.0370    -3.4920     0.5110 c          0 ASB       0.706300
     24 O3           3.4990    -3.5930     1.6310 o          0 ASB      -0.738600
     25 N1           3.8370    -3.1770    -0.5490 n          0 ASB      -0.574400
     26 C19          5.1920    -2.6910    -0.1830 c3         0 ASB       0.149800
     27 C20          5.0990    -1.1940    -0.0320 ca         0 ASB      -0.094300
     28 C21          4.9630    -0.6360     1.2250 ca         0 ASB      -0.075300
     29 C22          4.8970    -1.5230     2.4420 c3         0 ASB      -0.058050
     30 C23          4.8870     0.7370     1.3640 ca         0 ASB      -0.075300
     31 C24          4.7750     1.3480     2.7370 c3         0 ASB      -0.058050
     32 C25          4.9130     1.5510     0.2470 ca         0 ASB      -0.094300
     33 C26          4.8080     3.0510     0.3920 c3         0 ASB       0.149800
     34 N2           3.4080     3.3750     0.7280 n          0 ASB      -0.574400
     35 C27          2.6230     3.7180    -0.3280 c          0 ASB       0.706300
     36 O4           3.1160     3.9860    -1.4060 o          0 ASB      -0.738600
     37 C28          1.1540     3.7570    -0.1380 cc         0 ASB      -0.280400
     38 C29          0.3070     3.9190    -1.2420 c          0 ASB       0.479000
     39 O5           0.8300     4.1140    -2.4800 o          0 ASB      -0.870600
     40 C30         -1.0630     3.8780    -1.0660 cc         0 ASB      -0.256200
     41 C31         -1.6040     3.6940     0.2070 cd         0 ASB      -0.280400
     42 C32         -0.7490     3.6450     1.3240 c          0 ASB       0.479000
     43 O6          -1.2700     3.5760     2.5750 o          0 ASB      -0.870600
     44 C33          0.6220     3.6660     1.1460 cd         0 ASB      -0.256200
     45 C34         -3.0520     3.4670     0.3750 c          0 ASB       0.706300
     46 O7          -3.5630     3.5260     1.4760 o          0 ASB      -0.738600
     47 N3          -3.8100     3.1900    -0.7290 n          0 ASB      -0.574400
     48 C35         -5.1760     2.6900    -0.4620 c3         0 ASB       0.149800
     49 C36          5.0070     0.9920    -1.0130 ca         0 ASB      -0.075300
     50 C37          5.0160     1.8770    -2.2330 c3         0 ASB      -0.058050
     51 C38          5.0940    -0.3810    -1.1520 ca         0 ASB      -0.075300
     52 C39          5.1830    -0.9930    -2.5260 c3         0 ASB      -0.058050
     53 H           -3.6160    -1.9770    -2.7020 hc         0 ASB       0.042450
     54 H1          -5.1430    -2.8090    -2.3210 hc         0 ASB       0.042450
     55 H2          -5.1530    -1.3580    -3.3530 hc         0 ASB       0.042450
     56 H3          -5.8600     1.1130    -3.1990 hc         0 ASB       0.042450
     57 H4          -4.4140     2.0250    -2.7030 hc         0 ASB       0.042450
     58 H5          -4.2410     0.4130    -3.4370 hc         0 ASB       0.042450
     59 H6          -6.3240     1.5140     2.4800 hc         0 ASB       0.042450
     60 H7          -4.6790     1.0670     2.9930 hc         0 ASB       0.042450
     61 H8          -4.9310     2.4890     1.9530 hc         0 ASB       0.042450
     62 H9          -6.1570    -1.6080     2.7180 hc         0 ASB       0.042450
     63 H10         -4.5430    -2.3150     2.4700 hc         0 ASB       0.042450
     64 H11         -4.7040    -0.7010     3.2040 hc         0 ASB       0.042450
     65 H12         -5.5210    -3.3800     0.9170 h1         0 ASB       0.026200
     66 H13         -5.0810    -3.5470    -0.8050 h1         0 ASB       0.026200
     67 H14         -3.1510    -3.3520     1.4470 hn         0 ASB       0.341500
     68 H15         -0.6030    -4.0210    -2.2970 ha         0 ASB       0.096500
     69 H16          1.0570    -3.6530     2.3510 ha         0 ASB       0.096500
     70 H17          3.5440    -3.2640    -1.4700 hn         0 ASB       0.341500
     71 H18          5.5060    -3.1410     0.7590 h1         0 ASB       0.026200
     72 H19          5.9020    -2.9420    -0.9710 h1         0 ASB       0.026200
     73 H20          5.7090    -2.2500     2.4070 hc         0 ASB       0.042450
     74 H21          4.9940    -0.9140     3.3410 hc         0 ASB       0.042450
     75 H22          3.9410    -2.0460     2.4590 hc         0 ASB       0.042450
     76 H23          5.7710     1.4660     3.1640 hc         0 ASB       0.042450
     77 H24          4.2950     2.3230     2.6620 hc         0 ASB       0.042450
     78 H25          4.1800     0.6970     3.3770 hc         0 ASB       0.042450
     79 H26          5.4680     3.3920     1.1890 h1         0 ASB       0.026200
     80 H27          5.0840     3.5320    -0.5470 h1         0 ASB       0.026200
     81 H28          3.0720     3.3460     1.6370 hn         0 ASB       0.341500
     82 H29         -1.7180     3.9890    -1.9180 ha         0 ASB       0.096500
     83 H30          1.2790     3.6120     2.0010 ha         0 ASB       0.096500
     84 H31         -3.4730     3.3140    -1.6300 hn         0 ASB       0.341500
     85 H32         -5.8270     2.9230    -1.3040 h1         0 ASB       0.026200
     86 H33         -5.5660     3.1470     0.4470 h1         0 ASB       0.026200
     87 H34          6.0420     2.1500    -2.4770 hc         0 ASB       0.042450
     88 H35          4.5720     1.3420    -3.0730 hc         0 ASB       0.042450
     89 H36          4.4380     2.7790    -2.0310 hc         0 ASB       0.042450
     90 H37          6.2300    -1.0800    -2.8180 hc         0 ASB       0.042450
     91 H38          4.7260    -1.9820    -2.5140 hc         0 ASB       0.042450
     92 H39          4.6580    -0.3590    -3.2410 hc         0 ASB       0.042450
@<TRIPOS>BOND
     1     1     2 1   
     2     1    53 1   
     3     1    54 1   
     4     1    55 1   
     5     2     3 ar  
     6     2    10 ar  
     7     3     4 1   
     8     3     5 ar  
     9     4    56 1   
    10     4    57 1   
    11     4    58 1   
    12     5     6 ar  
    13     5    48 1   
    14     6     7 1   
    15     6     8 ar  
    16     7    59 1   
    17     7    60 1   
    18     7    61 1   
    19     8     9 1   
    20     8    10 ar  
    21     9    62 1   
    22     9    63 1   
    23     9    64 1   
    24    10    11 1   
    25    11    12 1   
    26    11    65 1   
    27    11    66 1   
    28    12    13 1   
    29    12    67 1   
    30    13    14 2   
    31    13    15 1   
    32    15    16 2   
    33    15    21 1   
    34    16    17 1   
    35    16    68 1   
    36    17    18 2   
    37    17    19 1   
    38    19    20 2   
    39    19    23 1   
    40    20    21 1   
    41    20    69 1   
    42    21    22 2   
    43    23    24 2   
    44    23    25 1   
    45    25    26 1   
    46    25    70 1   
    47    26    27 1   
    48    26    71 1   
    49    26    72 1   
    50    27    28 ar  
    51    27    51 ar  
    52    28    29 1   
    53    28    30 ar  
    54    29    73 1   
    55    29    74 1   
    56    29    75 1   
    57    30    31 1   
    58    30    32 ar  
    59    31    76 1   
    60    31    77 1   
    61    31    78 1   
    62    32    33 1   
    63    32    49 ar  
    64    33    34 1   
    65    33    79 1   
    66    33    80 1   
    67    34    35 1   
    68    34    81 1   
    69    35    36 2   
    70    35    37 1   
    71    37    38 1   
    72    37    44 2   
    73    38    39 2   
    74    38    40 1   
    75    40    41 2   
    76    40    82 1   
    77    41    42 1   
    78    41    45 1   
    79    42    43 2   
    80    42    44 1   
    81    44    83 1   
    82    45    46 2   
    83    45    47 1   
    84    47    48 1   
    85    47    84 1   
    86    48    85 1   
    87    48    86 1   
    88    49    50 1   
    89    49    51 ar  
    90    50    87 1   
    91    50    88 1   
    92    50    89 1   
    93    51    52 1   
    94    52    90 1   
    95    52    91 1   
    96    52    92 1   
@<TRIPOS>SUBSTRUCTURE
     1 ASB         1 TEMP              0 ****  ****    0 ROOT
