@<TRIPOS>MOLECULE
REO
  138   144     1     0     0
SMALL
bcc


@<TRIPOS>ATOM
      1 C           -1.1180    -7.3770     0.4290 ca         0 REO      -0.126167
      2 C1          -0.6870    -6.2230    -0.2280 ca         0 REO      -0.123667
      3 H           -0.7790    -6.1480    -1.3010 ha         0 REO       0.165333
      4 C2          -0.1410    -5.1730     0.4950 ca         0 REO       0.021767
      5 C3          -0.0520    -5.2600     1.8840 ca         0 REO       0.021767
      6 N            0.4440    -4.2170     2.6600 n          0 REO      -0.468267
      7 H1           0.8760    -3.4620     2.2300 hn         0 REO       0.306333
      8 C4           0.3310    -4.2440     3.9940 c          0 REO       0.745433
      9 O           -0.2510    -5.1790     4.5080 o          0 REO      -0.618933
     10 N1           0.8290    -3.2920     4.7860 n          0 REO      -0.539733
     11 H2           1.6610    -2.8560     4.5420 hn         0 REO       0.293333
     12 C5           0.1420    -2.8940     6.0150 c3         0 REO       0.115467
     13 H3          -0.8940    -3.2280     5.9770 h1         0 REO       0.082117
     14 H4           0.6400    -3.3460     6.8720 h1         0 REO       0.082117
     15 C6           0.1830    -1.3930     6.1420 ca         0 REO      -0.139300
     16 C7           1.3930    -0.7360     6.2520 ca         0 REO      -0.025633
     17 C8           1.4360     0.6400     6.3620 ca         0 REO      -0.139300
     18 C9           0.2590     1.3680     6.3610 ca         0 REO      -0.025633
     19 C10         -0.9490     0.7110     6.2300 ca         0 REO      -0.139300
     20 C11         -0.9930    -0.6670     6.1370 ca         0 REO      -0.025633
     21 C12         -2.3190    -1.3760     6.0310 c3         0 REO      -0.064767
     22 H5          -3.0640    -0.6930     5.6220 hc         0 REO       0.061700
     23 H6          -2.2180    -2.2390     5.3730 hc         0 REO       0.061700
     24 C13         -2.7610    -1.8410     7.4200 c3         0 REO      -0.086267
     25 H7          -3.7600    -2.2740     7.3570 hc         0 REO       0.040033
     26 H8          -2.0630    -2.5910     7.7910 hc         0 REO       0.040033
     27 H9          -2.7760    -0.9900     8.1000 hc         0 REO       0.040033
     28 C14         -2.2310     1.5020     6.1210 c3         0 REO       0.115467
     29 H10         -2.9580     1.1300     6.8430 h1         0 REO       0.082117
     30 H11         -2.0320     2.5570     6.3080 h1         0 REO       0.082117
     31 N2          -2.7480     1.3280     4.7610 n          0 REO      -0.539733
     32 H12         -2.7580     0.4320     4.3880 hn         0 REO       0.293333
     33 C15         -3.2030     2.3200     4.0110 c          0 REO       0.745433
     34 O1          -3.5360     3.3240     4.6110 o          0 REO      -0.618933
     35 N3          -3.3400     2.3650     2.7160 n          0 REO      -0.468267
     36 H13         -2.7980     1.7520     2.1960 hn         0 REO       0.306333
     37 C16         -4.1860     3.2030     2.0130 ca         0 REO       0.021767
     38 C17         -5.0340     4.0630     2.7080 ca         0 REO      -0.123667
     39 H14         -5.0200     4.0650     3.7880 ha         0 REO       0.165333
     40 C18         -5.8890     4.9090     2.0390 ca         0 REO      -0.126167
     41 H15         -6.5350     5.5750     2.5920 ha         0 REO       0.138000
     42 C19         -5.9170     4.9040     0.6420 ca         0 REO      -0.126167
     43 C20         -5.0800     4.0330    -0.0600 ca         0 REO      -0.123667
     44 H16         -5.1060     4.0210    -1.1390 ha         0 REO       0.165333
     45 C21         -4.2180     3.1850     0.6120 ca         0 REO       0.021767
     46 N4          -3.4160     2.3110    -0.1290 n          0 REO      -0.468267
     47 H17         -2.9420     1.5900     0.3150 hn         0 REO       0.306333
     48 C22         -3.3060     2.4730    -1.4590 c          0 REO       0.745433
     49 O2          -3.7540     3.4800    -1.9720 o          0 REO      -0.618933
     50 N5          -2.7150     1.5540    -2.2330 n          0 REO      -0.539733
     51 H18         -2.8090     0.6180    -1.9960 hn         0 REO       0.293333
     52 C23         -1.9350     1.9010    -3.4180 c3         0 REO       0.115467
     53 H19         -2.5330     1.7220    -4.3110 h1         0 REO       0.082117
     54 H20         -1.6560     2.9540    -3.3730 h1         0 REO       0.082117
     55 C24         -0.6880     1.0550    -3.4710 ca         0 REO      -0.139300
     56 C25         -0.7970    -0.3190    -3.5660 ca         0 REO      -0.025633
     57 C26          0.3370    -1.0990    -3.5790 ca         0 REO      -0.139300
     58 C27          1.5910    -0.5170    -3.5260 ca         0 REO      -0.025633
     59 C28          1.7000     0.8550    -3.4080 ca         0 REO      -0.139300
     60 C29          0.5620     1.6420    -3.4180 ca         0 REO      -0.025633
     61 C30          0.6860     3.1430    -3.3710 c3         0 REO      -0.064767
     62 H21         -0.1250     3.5560    -2.7720 hc         0 REO       0.061700
     63 H22          1.6420     3.4150    -2.9230 hc         0 REO       0.061700
     64 C31          0.6100     3.7070    -4.7910 c3         0 REO      -0.086267
     65 H23          0.7000     4.7920    -4.7570 hc         0 REO       0.040033
     66 H24          1.4220     3.2940    -5.3900 hc         0 REO       0.040033
     67 H25         -0.3460     3.4350    -5.2390 hc         0 REO       0.040033
     68 C32          3.0510     1.4900    -3.1660 c3         0 REO       0.115467
     69 H26          3.8410     0.7780    -3.4040 h1         0 REO       0.082117
     70 H27          3.1570     2.3800    -3.7870 h1         0 REO       0.082117
     71 N6           3.1250     1.8610    -1.7480 n          0 REO      -0.539733
     72 H28          2.4730     2.4800    -1.3850 hn         0 REO       0.293333
     73 C33          4.0780     1.3590    -0.9400 c          0 REO       0.745433
     74 O3           4.9980     0.7060    -1.3930 o          0 REO      -0.618933
     75 N7           3.9860     1.6020     0.3980 n          0 REO      -0.468267
     76 H29          3.1550     1.4800     0.8830 hn         0 REO       0.306333
     77 C34          5.1610     2.0390     1.0390 ca         0 REO       0.021767
     78 C35          6.3360     2.1250     0.3170 ca         0 REO      -0.123667
     79 H30          6.3450     1.8570    -0.7300 ha         0 REO       0.165333
     80 C36          7.5140     2.5570     0.9330 ca         0 REO      -0.126167
     81 C37          7.4970     2.9130     2.2840 ca         0 REO      -0.126167
     82 H31          8.4040     3.2470     2.7670 ha         0 REO       0.138000
     83 C38          6.3230     2.8380     2.9980 ca         0 REO      -0.123667
     84 H32          6.3120     3.1220     4.0400 ha         0 REO       0.165333
     85 C39          5.1460     2.3980     2.3900 ca         0 REO       0.021767
     86 N8           3.9690     2.3410     3.1340 n          0 REO      -0.468267
     87 H33          3.1200     2.5380     2.7090 hn         0 REO       0.306333
     88 C40          4.0050     2.0160     4.4340 c          0 REO       0.745433
     89 O4           5.0350     1.5540     4.8850 o          0 REO      -0.618933
     90 N9           2.9680     2.1720     5.2580 n          0 REO      -0.539733
     91 H34          2.3180     2.8620     5.0510 hn         0 REO       0.293333
     92 C41          2.7570     1.3600     6.4560 c3         0 REO       0.115467
     93 H35          2.7570     2.0050     7.3350 h1         0 REO       0.082117
     94 H36          3.5620     0.6300     6.5450 h1         0 REO       0.082117
     95 C42          2.8300    -1.3730    -3.5970 c3         0 REO      -0.064767
     96 H37          3.5930    -0.9630    -2.9360 hc         0 REO       0.061700
     97 H38          2.5870    -2.3890    -3.2860 hc         0 REO       0.061700
     98 C43          3.3550    -1.3920    -5.0340 c3         0 REO      -0.086267
     99 H39          4.2510    -2.0110    -5.0850 hc         0 REO       0.040033
    100 H40          2.5910    -1.8020    -5.6950 hc         0 REO       0.040033
    101 H41          3.5980    -0.3760    -5.3460 hc         0 REO       0.040033
    102 C44          0.2190    -2.6060    -3.5660 c3         0 REO       0.115467
    103 H42         -0.8270    -2.8990    -3.6620 h1         0 REO       0.082117
    104 H43          0.8020    -3.0330    -4.3810 h1         0 REO       0.082117
    105 N10          0.7520    -3.0590    -2.2680 n          0 REO      -0.539733
    106 H44          1.6210    -2.7480    -1.9690 hn         0 REO       0.293333
    107 C45          0.0430    -3.8990    -1.4970 c          0 REO       0.745433
    108 O5          -0.8700    -4.5340    -1.9880 o          0 REO      -0.618933
    109 N11          0.3300    -4.0480    -0.1920 n          0 REO      -0.468267
    110 H45          0.8610    -3.3800     0.2680 hn         0 REO       0.306333
    111 C46         -2.1570    -0.9630    -3.6550 c3         0 REO      -0.064767
    112 H46         -2.1460    -1.9100    -3.1150 hc         0 REO       0.061700
    113 H47         -2.9020    -0.3020    -3.2140 hc         0 REO       0.061700
    114 C47         -2.5050    -1.2170    -5.1230 c3         0 REO      -0.086267
    115 H48         -3.4880    -1.6840    -5.1880 hc         0 REO       0.040033
    116 H49         -2.5160    -0.2710    -5.6630 hc         0 REO       0.040033
    117 H50         -1.7600    -1.8790    -5.5640 hc         0 REO       0.040033
    118 C48          0.2940     2.8680     6.5020 c3         0 REO      -0.064767
    119 H51          1.2640     3.2410     6.1710 hc         0 REO       0.061700
    120 H52         -0.4920     3.3090     5.8890 hc         0 REO       0.061700
    121 C49          0.0740     3.2480     7.9670 c3         0 REO      -0.086267
    122 H53          0.0120     4.3330     8.0560 hc         0 REO       0.040033
    123 H54         -0.8550     2.8010     8.3230 hc         0 REO       0.040033
    124 H55          0.9070     2.8810     8.5670 hc         0 REO       0.040033
    125 C50          2.6760    -1.5260     6.2520 c3         0 REO      -0.064767
    126 H56          2.5130    -2.4830     5.7560 hc         0 REO       0.061700
    127 H57          3.4470    -0.9680     5.7210 hc         0 REO       0.061700
    128 C51          3.1250    -1.7700     7.6940 c3         0 REO      -0.086267
    129 H58          4.0970    -2.2640     7.6940 hc         0 REO       0.040033
    130 H59          3.2030    -0.8170     8.2170 hc         0 REO       0.040033
    131 H60          2.3960    -2.4030     8.2000 hc         0 REO       0.040033
    132 C52         -0.4760    -6.4180     2.5360 ca         0 REO      -0.123667
    133 H61         -0.3930    -6.4910     3.6100 ha         0 REO       0.165333
    134 C53         -1.0030    -7.4660     1.8180 ca         0 REO      -0.126167
    135 H62         -1.3220    -8.3630     2.3280 ha         0 REO       0.138000
    136 H63          8.4240     2.6150     0.3730 ha         0 REO       0.138000
    137 H64         -6.5750     5.5620     0.1140 ha         0 REO       0.138000
    138 H65         -1.5340    -8.1890    -0.1290 ha         0 REO       0.138000
@<TRIPOS>BOND
     1     1     2 ar  
     2     1   134 ar  
     3     1   138 1   
     4     2     3 1   
     5     2     4 ar  
     6     4     5 ar  
     7     4   109 1   
     8     5     6 1   
     9     5   132 ar  
    10     6     7 1   
    11     6     8 1   
    12     8     9 2   
    13     8    10 1   
    14    10    11 1   
    15    10    12 1   
    16    12    13 1   
    17    12    14 1   
    18    12    15 1   
    19    15    16 ar  
    20    15    20 ar  
    21    16    17 ar  
    22    16   125 1   
    23    17    18 ar  
    24    17    92 1   
    25    18    19 ar  
    26    18   118 1   
    27    19    20 ar  
    28    19    28 1   
    29    20    21 1   
    30    21    22 1   
    31    21    23 1   
    32    21    24 1   
    33    24    25 1   
    34    24    26 1   
    35    24    27 1   
    36    28    29 1   
    37    28    30 1   
    38    28    31 1   
    39    31    32 1   
    40    31    33 1   
    41    33    34 2   
    42    33    35 1   
    43    35    36 1   
    44    35    37 1   
    45    37    38 ar  
    46    37    45 ar  
    47    38    39 1   
    48    38    40 ar  
    49    40    41 1   
    50    40    42 ar  
    51    42    43 ar  
    52    42   137 1   
    53    43    44 1   
    54    43    45 ar  
    55    45    46 1   
    56    46    47 1   
    57    46    48 1   
    58    48    49 2   
    59    48    50 1   
    60    50    51 1   
    61    50    52 1   
    62    52    53 1   
    63    52    54 1   
    64    52    55 1   
    65    55    56 ar  
    66    55    60 ar  
    67    56    57 ar  
    68    56   111 1   
    69    57    58 ar  
    70    57   102 1   
    71    58    59 ar  
    72    58    95 1   
    73    59    60 ar  
    74    59    68 1   
    75    60    61 1   
    76    61    62 1   
    77    61    63 1   
    78    61    64 1   
    79    64    65 1   
    80    64    66 1   
    81    64    67 1   
    82    68    69 1   
    83    68    70 1   
    84    68    71 1   
    85    71    72 1   
    86    71    73 1   
    87    73    74 2   
    88    73    75 1   
    89    75    76 1   
    90    75    77 1   
    91    77    78 ar  
    92    77    85 ar  
    93    78    79 1   
    94    78    80 ar  
    95    80    81 ar  
    96    80   136 1   
    97    81    82 1   
    98    81    83 ar  
    99    83    84 1   
   100    83    85 ar  
   101    85    86 1   
   102    86    87 1   
   103    86    88 1   
   104    88    89 2   
   105    88    90 1   
   106    90    91 1   
   107    90    92 1   
   108    92    93 1   
   109    92    94 1   
   110    95    96 1   
   111    95    97 1   
   112    95    98 1   
   113    98    99 1   
   114    98   100 1   
   115    98   101 1   
   116   102   103 1   
   117   102   104 1   
   118   102   105 1   
   119   105   106 1   
   120   105   107 1   
   121   107   108 2   
   122   107   109 1   
   123   109   110 1   
   124   111   112 1   
   125   111   113 1   
   126   111   114 1   
   127   114   115 1   
   128   114   116 1   
   129   114   117 1   
   130   118   119 1   
   131   118   120 1   
   132   118   121 1   
   133   121   122 1   
   134   121   123 1   
   135   121   124 1   
   136   125   126 1   
   137   125   127 1   
   138   125   128 1   
   139   128   129 1   
   140   128   130 1   
   141   128   131 1   
   142   132   133 1   
   143   132   134 ar  
   144   134   135 1   
@<TRIPOS>SUBSTRUCTURE
     1 REO         1 TEMP              0 ****  ****    0 ROOT
