@<TRIPOS>MOLECULE
200
  118   128     1     0     0
SMALL
bcc


@<TRIPOS>ATOM
      1 C           10.4970     0.7580     1.1100 c3         0 200      -0.090267
      2 C1           9.9050     0.0010    -0.0800 c3         0 200      -0.012700
      3 C2          10.3240     0.6870    -1.3820 c3         0 200      -0.090267
      4 C3          10.4200    -1.4400    -0.0750 c3         0 200      -0.090267
      5 C4           8.4010    -0.0030     0.0240 ca         0 200      -0.036300
      6 C5           7.7070     1.1870     0.0380 ca         0 200      -0.114500
      7 C6           6.3130     1.1910     0.1370 ca         0 200       0.031300
      8 C7           5.6330    -0.0090     0.2070 ca         0 200      -0.162000
      9 C8           6.3250    -1.2070     0.2000 ca         0 200       0.031300
     10 C9           7.7160    -1.1970     0.0990 ca         0 200      -0.114500
     11 N            5.7050    -2.4620     0.2930 na         0 200       0.107800
     12 C10          4.4010    -2.8220     0.2060 cc         0 200      -0.230100
     13 C11          4.3450    -4.1690     0.3970 cd         0 200       0.353800
     14 N1           5.5950    -4.6190     0.6190 nd         0 200      -0.331500
     15 N2           6.4290    -3.6520     0.5300 nc         0 200      -0.145550
     16 C12          3.1650    -5.0580     0.3280 cd         0 200      -0.163300
     17 C13          3.0340    -6.2560     0.9690 cc         0 200      -0.139500
     18 C14          1.8200    -6.8240     0.5530 cc         0 200      -0.204000
     19 C15          1.2470    -5.9720    -0.3190 cd         0 200      -0.107600
     20 N3           2.0230    -4.8500    -0.4020 na         0 200      -0.160100
     21 C16          0.0170    -6.2380    -1.1400 c3         0 200       0.092600
     22 C17          0.0400    -5.3330    -2.3730 c3         0 200      -0.087100
     23 C18          0.0340    -7.6980    -1.5990 c3         0 200      -0.087100
     24 C19         -1.2520    -5.9860    -0.3770 cc         0 200      -0.107600
     25 C20         -1.8490    -6.8470     0.4720 cd         0 200      -0.204000
     26 C21         -3.0610    -6.2710     0.8940 cd         0 200      -0.139500
     27 C22         -3.1610    -5.0590     0.2770 cc         0 200      -0.163300
     28 N4          -2.0080    -4.8500    -0.4340 na         0 200      -0.160100
     29 C23         -4.3520    -4.1800     0.3040 cc         0 200       0.353800
     30 C24         -4.4030    -2.8280     0.1550 cd         0 200      -0.230100
     31 N5          -5.7100    -2.4690     0.2180 na         0 200       0.107800
     32 N6          -6.4410    -3.6680     0.3820 nd         0 200      -0.145550
     33 N7          -5.6090    -4.6410     0.4480 nc         0 200      -0.331500
     34 C25         -6.3250    -1.2110     0.1690 ca         0 200       0.031300
     35 C26         -5.6270    -0.0140     0.2220 ca         0 200      -0.162000
     36 C27         -6.3130     1.1910     0.1920 ca         0 200       0.031300
     37 C28         -7.7090     1.1910     0.0870 ca         0 200      -0.114500
     38 C29         -8.4010     0.0010     0.0230 ca         0 200      -0.036300
     39 C30         -7.7200    -1.1970     0.0660 ca         0 200      -0.114500
     40 C31         -9.9030     0.0090    -0.0930 c3         0 200      -0.012700
     41 C32        -10.3120     0.7440    -1.3710 c3         0 200      -0.090267
     42 C33        -10.4180    -1.4310    -0.1460 c3         0 200      -0.090267
     43 C34        -10.5050     0.7220     1.1200 c3         0 200      -0.090267
     44 N8          -5.6920     2.4450     0.2740 na         0 200       0.107800
     45 C35         -4.3890     2.8100     0.2130 cc         0 200      -0.230100
     46 C36         -4.3430     4.1610     0.3760 cd         0 200       0.353800
     47 N9          -5.6000     4.6120     0.5480 nd         0 200      -0.331500
     48 N10         -6.4280     3.6390     0.4670 nc         0 200      -0.145550
     49 C37         -3.1650     5.0510     0.3280 cd         0 200      -0.163300
     50 C38         -3.0590     6.2560     0.9660 cc         0 200      -0.139500
     51 C39         -1.8400     6.8290     0.5790 cc         0 200      -0.204000
     52 C40         -1.2430     5.9820    -0.2820 cd         0 200      -0.107600
     53 N11         -1.9970     4.8440    -0.3620 na         0 200      -0.160100
     54 C41         -0.0160     6.2680    -1.0980 c3         0 200       0.092600
     55 C42         -0.0390     5.3860    -2.3490 c3         0 200      -0.087100
     56 C43         -0.0400     7.7360    -1.5290 c3         0 200      -0.087100
     57 C44          1.2540     6.0070    -0.3450 cc         0 200      -0.107600
     58 C45          1.8770     6.8580     0.4890 cd         0 200      -0.204000
     59 C46          3.0910     6.2720     0.8850 cd         0 200      -0.139500
     60 C47          3.1610     5.0520     0.2730 cc         0 200      -0.163300
     61 N12          1.9820     4.8500    -0.3990 na         0 200      -0.160100
     62 C48          4.3460     4.1670     0.2750 cc         0 200       0.353800
     63 C49          4.3890     2.8120     0.1510 cd         0 200      -0.230100
     64 N13          5.6950     2.4490     0.1880 na         0 200       0.107800
     65 N14          6.4340     3.6500     0.3060 nd         0 200      -0.145550
     66 N15          5.6080     4.6270     0.3650 nc         0 200      -0.331500
     67 H           10.1300     1.7840     1.1060 hc         0 200       0.042367
     68 H1          10.1980     0.2690     2.0370 hc         0 200       0.042367
     69 H2          11.5840     0.7610     1.0350 hc         0 200       0.042367
     70 H3          11.4120     0.6900    -1.4570 hc         0 200       0.042367
     71 H4           9.9030     0.1480    -2.2290 hc         0 200       0.042367
     72 H5           9.9580     1.7140    -1.3850 hc         0 200       0.042367
     73 H6          10.1210    -1.9290     0.8520 hc         0 200       0.042367
     74 H7           9.9980    -1.9800    -0.9230 hc         0 200       0.042367
     75 H8          11.5070    -1.4380    -0.1500 hc         0 200       0.042367
     76 H9           8.2430     2.1220    -0.0280 ha         0 200       0.167750
     77 H10          4.5550    -0.0120     0.2690 ha         0 200       0.151000
     78 H11          8.2600    -2.1300     0.0900 ha         0 200       0.167750
     79 H12          3.5640    -2.1650     0.0200 h4         0 200       0.193000
     80 H13          3.7360    -6.6880     1.6670 ha         0 200       0.167000
     81 H14          1.4180    -7.7730     0.8750 ha         0 200       0.156500
     82 H15          1.8030    -4.0430    -0.8930 hn         0 200       0.300700
     83 H16          0.9310    -5.5460    -2.9640 hc         0 200       0.045200
     84 H17         -0.8490    -5.5170    -2.9760 hc         0 200       0.045200
     85 H18          0.0550    -4.2890    -2.0580 hc         0 200       0.045200
     86 H19          0.0440    -8.3520    -0.7270 hc         0 200       0.045200
     87 H20         -0.8550    -7.9010    -2.1960 hc         0 200       0.045200
     88 H21          0.9250    -7.8790    -2.2000 hc         0 200       0.045200
     89 H22         -1.4640    -7.8090     0.7750 ha         0 200       0.156500
     90 H23         -3.7760    -6.7070     1.5760 ha         0 200       0.167000
     91 H24         -1.7680    -4.0330    -0.8990 hn         0 200       0.300700
     92 H25         -3.5620    -2.1660     0.0130 h4         0 200       0.193000
     93 H26         -4.5490    -0.0200     0.2860 ha         0 200       0.151000
     94 H27         -8.2460     2.1270     0.0570 ha         0 200       0.167750
     95 H28         -8.2660    -2.1280     0.0190 ha         0 200       0.167750
     96 H29         -9.8830     0.2360    -2.2350 hc         0 200       0.042367
     97 H30        -11.3990     0.7500    -1.4550 hc         0 200       0.042367
     98 H31         -9.9450     1.7700    -1.3340 hc         0 200       0.042367
     99 H32        -10.1270    -1.9540     0.7650 hc         0 200       0.042367
    100 H33        -11.5050    -1.4250    -0.2300 hc         0 200       0.042367
    101 H34         -9.9900    -1.9390    -1.0100 hc         0 200       0.042367
    102 H35        -10.1380     1.7470     1.1570 hc         0 200       0.042367
    103 H36        -11.5910     0.7280     1.0360 hc         0 200       0.042367
    104 H37        -10.2140     0.1980     2.0300 hc         0 200       0.042367
    105 H38         -3.5450     2.1530     0.0650 h4         0 200       0.193000
    106 H39         -3.7820     6.6870     1.6430 ha         0 200       0.167000
    107 H40         -1.4490     7.7790     0.9120 ha         0 200       0.156500
    108 H41         -1.7490     4.0290    -0.8260 hn         0 200       0.300700
    109 H42         -0.9310     5.6090    -2.9340 hc         0 200       0.045200
    110 H43          0.8480     5.5850    -2.9500 hc         0 200       0.045200
    111 H44         -0.0500     4.3370    -2.0540 hc         0 200       0.045200
    112 H45         -0.0520     8.3730    -0.6450 hc         0 200       0.045200
    113 H46          0.8470     7.9540    -2.1230 hc         0 200       0.045200
    114 H47         -0.9320     7.9250    -2.1250 hc         0 200       0.045200
    115 H48          1.5090     7.8250     0.8010 ha         0 200       0.156500
    116 H49          3.8280     6.7030     1.5460 ha         0 200       0.167000
    117 H50          1.7120     4.0280    -0.8370 hn         0 200       0.300700
    118 H51          3.5420     2.1510     0.0430 h4         0 200       0.193000
@<TRIPOS>BOND
     1     1     2 1   
     2     1    67 1   
     3     1    68 1   
     4     1    69 1   
     5     2     3 1   
     6     2     4 1   
     7     2     5 1   
     8     3    70 1   
     9     3    71 1   
    10     3    72 1   
    11     4    73 1   
    12     4    74 1   
    13     4    75 1   
    14     5     6 ar  
    15     5    10 ar  
    16     6     7 ar  
    17     6    76 1   
    18     7     8 ar  
    19     7    64 1   
    20     8     9 ar  
    21     8    77 1   
    22     9    10 ar  
    23     9    11 1   
    24    10    78 1   
    25    11    12 1   
    26    11    15 1   
    27    12    13 2   
    28    12    79 1   
    29    13    14 1   
    30    13    16 1   
    31    14    15 2   
    32    16    17 2   
    33    16    20 1   
    34    17    18 1   
    35    17    80 1   
    36    18    19 2   
    37    18    81 1   
    38    19    20 1   
    39    19    21 1   
    40    20    82 1   
    41    21    22 1   
    42    21    23 1   
    43    21    24 1   
    44    22    83 1   
    45    22    84 1   
    46    22    85 1   
    47    23    86 1   
    48    23    87 1   
    49    23    88 1   
    50    24    25 2   
    51    24    28 1   
    52    25    26 1   
    53    25    89 1   
    54    26    27 2   
    55    26    90 1   
    56    27    28 1   
    57    27    29 1   
    58    28    91 1   
    59    29    30 2   
    60    29    33 1   
    61    30    31 1   
    62    30    92 1   
    63    31    32 1   
    64    31    34 1   
    65    32    33 2   
    66    34    35 ar  
    67    34    39 ar  
    68    35    36 ar  
    69    35    93 1   
    70    36    37 ar  
    71    36    44 1   
    72    37    38 ar  
    73    37    94 1   
    74    38    39 ar  
    75    38    40 1   
    76    39    95 1   
    77    40    41 1   
    78    40    42 1   
    79    40    43 1   
    80    41    96 1   
    81    41    97 1   
    82    41    98 1   
    83    42    99 1   
    84    42   100 1   
    85    42   101 1   
    86    43   102 1   
    87    43   103 1   
    88    43   104 1   
    89    44    45 1   
    90    44    48 1   
    91    45    46 2   
    92    45   105 1   
    93    46    47 1   
    94    46    49 1   
    95    47    48 2   
    96    49    50 2   
    97    49    53 1   
    98    50    51 1   
    99    50   106 1   
   100    51    52 2   
   101    51   107 1   
   102    52    53 1   
   103    52    54 1   
   104    53   108 1   
   105    54    55 1   
   106    54    56 1   
   107    54    57 1   
   108    55   109 1   
   109    55   110 1   
   110    55   111 1   
   111    56   112 1   
   112    56   113 1   
   113    56   114 1   
   114    57    58 2   
   115    57    61 1   
   116    58    59 1   
   117    58   115 1   
   118    59    60 2   
   119    59   116 1   
   120    60    61 1   
   121    60    62 1   
   122    61   117 1   
   123    62    63 2   
   124    62    66 1   
   125    63    64 1   
   126    63   118 1   
   127    64    65 1   
   128    65    66 2   
@<TRIPOS>SUBSTRUCTURE
     1 200         1 TEMP              0 ****  ****    0 ROOT
