@<TRIPOS>MOLECULE
ASB
  128   136     1     0     0
SMALL
bcc


@<TRIPOS>ATOM
      1 C1           3.4090     3.2520     3.6420 c3         1 ASB      -0.068925
      2 C2           3.7380     2.9200     2.1970 ca         1 ASB      -0.062050
      3 C3           5.0990     2.8930     1.7680 ca         1 ASB      -0.062050
      4 C4           6.1920     3.1380     2.7930 c3         1 ASB      -0.068925
      5 C5           5.4100     2.7130     0.3930 ca         1 ASB      -0.114300
      6 C6           6.8680     2.5450    -0.0560 c3         1 ASB       0.126300
      7 N1           7.3480     1.2030     0.2930 n          1 ASB      -0.519900
      8 C7           7.0100     0.1270    -0.4860 c          1 ASB       0.649200
      9 O1           6.4770     0.1710    -1.5900 o          1 ASB      -0.553600
     10 C8           7.0310    -1.2180     0.1170 cc         1 ASB       0.020600
     11 C9           8.1820    -1.9280     0.4020 cd         1 ASB      -0.131250
     12 C10          8.0500    -3.2690     0.7610 cd         1 ASB       0.030750
     13 C11          6.7990    -3.9060     0.6800 ca         1 ASB      -0.023000
     14 C12          6.6160    -5.2550     1.0240 ca         1 ASB      -0.063750
     15 C13          5.3490    -5.8540     0.9540 ca         1 ASB      -0.063750
     16 C14          4.2540    -5.1600     0.4200 ca         1 ASB      -0.023000
     17 C15          2.9570    -5.7010     0.3610 cc         1 ASB       0.030750
     18 C16          1.8940    -4.9340    -0.1210 cc         1 ASB      -0.131250
     19 C17          2.1810    -3.7130    -0.7110 cd         1 ASB       0.020600
     20 C18          1.1780    -2.6410    -0.9800 c          1 ASB       0.649200
     21 O2           1.6200    -1.4900    -0.9780 o          1 ASB      -0.553600
     22 N2          -0.1630    -2.9140    -1.1610 n          1 ASB      -0.519900
     23 C19         -1.0300    -1.7890    -1.4750 c3         1 ASB       0.126300
     24 C20         -2.5200    -2.0060    -1.2680 ca         1 ASB      -0.114300
     25 C21         -3.4270    -1.8160    -2.3460 ca         1 ASB      -0.062050
     26 C22         -2.9040    -1.6840    -3.7650 c3         1 ASB      -0.068925
     27 C23         -4.8300    -1.7430    -2.1020 ca         1 ASB      -0.062050
     28 C24         -5.7730    -1.3780    -3.2360 c3         1 ASB      -0.068925
     29 C25         -5.3530    -2.0940    -0.8260 ca         1 ASB      -0.114300
     30 C26         -6.8680    -2.2190    -0.6320 c3         1 ASB       0.126300
     31 N3          -7.3580    -1.6830     0.6300 n          1 ASB      -0.519900
     32 C27         -7.5180    -0.4030     1.0670 c          1 ASB       0.649200
     33 O3          -7.8700    -0.1690     2.2170 o          1 ASB      -0.553600
     34 C28         -7.1730     0.7550     0.2160 cc         1 ASB       0.020600
     35 C29         -8.0450     1.1410    -0.7900 cd         1 ASB      -0.131250
     36 C30         -7.8500     2.3680    -1.4070 cd         1 ASB       0.030750
     37 C31         -6.7210     3.1300    -1.1000 ca         1 ASB      -0.023000
     38 C32         -6.5470     4.4020    -1.6560 ca         1 ASB      -0.063750
     39 C33         -5.4210     5.1690    -1.3490 ca         1 ASB      -0.063750
     40 C34         -4.3690     4.6190    -0.6110 ca         1 ASB      -0.023000
     41 C35         -3.2060     5.3540    -0.3600 cc         1 ASB       0.030750
     42 C36         -2.1340     4.7620     0.2970 cc         1 ASB      -0.131250
     43 C37         -2.1880     3.4030     0.5760 cd         1 ASB       0.020600
     44 C38         -1.0740     2.6700     1.2550 c          1 ASB       0.649200
     45 O4          -1.3760     1.6380     1.8530 o          1 ASB      -0.553600
     46 N4           0.2300     3.1100     1.1470 n          1 ASB      -0.519900
     47 C39          1.2800     2.3500     1.8110 c3         1 ASB       0.126300
     48 C40          2.6910     2.5970     1.2900 ca         1 ASB      -0.114300
     49 C41          3.0060     2.4120    -0.0810 ca         1 ASB      -0.062050
     50 C42          1.9280     2.0450    -1.0800 c3         1 ASB      -0.068925
     51 C43          4.3420     2.6000    -0.5390 ca         1 ASB      -0.062050
     52 C44          4.6000     2.6670    -2.0330 c3         1 ASB      -0.068925
     53 N5          -3.3060     2.6730     0.2480 na         1 ASB       0.032150
     54 C45         -3.1320     1.2150    -0.0380 c3         1 ASB      -0.044650
     55 C46         -4.4760     3.2850    -0.1400 ca         1 ASB       0.000950
     56 C47         -5.7460     2.6210    -0.2020 ca         1 ASB       0.000950
     57 N6          -6.1090     1.5380     0.5720 na         1 ASB       0.032150
     58 C48         -5.6070     1.4070     1.9790 c3         1 ASB      -0.044650
     59 C49         -4.4400    -2.4690     0.2020 ca         1 ASB      -0.062050
     60 C50         -4.9420    -3.0770     1.4990 c3         1 ASB      -0.068925
     61 C51         -3.0380    -2.2990     0.0190 ca         1 ASB      -0.062050
     62 C52         -2.1030    -2.5020     1.1960 c3         1 ASB      -0.068925
     63 N7           3.4780    -3.3090    -0.8430 na         1 ASB       0.032150
     64 C53          3.8540    -2.6040    -2.1170 c3         1 ASB      -0.044650
     65 C54          4.4640    -3.8520    -0.0670 ca         1 ASB       0.000950
     66 C55          5.6780    -3.1660     0.2390 ca         1 ASB       0.000950
     67 N8           5.8040    -1.8060     0.1840 na         1 ASB       0.032150
     68 C56          4.6610    -0.9050     0.5380 c3         1 ASB      -0.044650
     69 H1           2.5460     3.9230     3.6950 hc         1 ASB       0.057658
     70 H2           4.2090     3.7960     4.1500 hc         1 ASB       0.057658
     71 H3           3.2040     2.3330     4.2010 hc         1 ASB       0.057658
     72 H4           6.2370     4.2040     3.0390 hc         1 ASB       0.057658
     73 H5           7.1850     2.8310     2.4630 hc         1 ASB       0.057658
     74 H6           6.0030     2.5550     3.7010 hc         1 ASB       0.057658
     75 H7           7.0040     2.6780    -1.1300 h1         1 ASB       0.088575
     76 H8           7.5160     3.2870     0.4220 h1         1 ASB       0.088575
     77 H9           7.7570     1.0950     1.2140 hn         1 ASB       0.350750
     78 H10          9.1640    -1.4640     0.3440 ha         1 ASB       0.222250
     79 H11          8.9420    -3.8320     1.0480 ha         1 ASB       0.219500
     80 H12          7.4540    -5.8510     1.3960 ha         1 ASB       0.209750
     81 H13          5.2420    -6.8850     1.3000 ha         1 ASB       0.209750
     82 H14          2.7570    -6.6940     0.7720 ha         1 ASB       0.219500
     83 H15          0.8750    -5.2970    -0.0120 ha         1 ASB       0.222250
     84 H16         -0.5190    -3.8490    -1.3370 hn         1 ASB       0.350750
     85 H17         -0.7770    -1.4820    -2.4950 h1         1 ASB       0.088575
     86 H18         -0.7380    -0.9290    -0.8580 h1         1 ASB       0.088575
     87 H19         -3.6210    -2.0600    -4.5020 hc         1 ASB       0.057658
     88 H20         -2.0190    -2.3080    -3.9220 hc         1 ASB       0.057658
     89 H21         -2.6660    -0.6400    -3.9870 hc         1 ASB       0.057658
     90 H22         -5.2710    -0.8450    -4.0480 hc         1 ASB       0.057658
     91 H23         -6.2460    -2.2780    -3.6390 hc         1 ASB       0.057658
     92 H24         -6.5360    -0.6720    -2.8960 hc         1 ASB       0.057658
     93 H25         -7.1350    -3.2820    -0.6660 h1         1 ASB       0.088575
     94 H26         -7.4440    -1.7200    -1.4100 h1         1 ASB       0.088575
     95 H27         -7.7120    -2.3720     1.2930 hn         1 ASB       0.350750
     96 H28         -8.9350     0.5530    -1.0160 ha         1 ASB       0.222250
     97 H29         -8.5950     2.7270    -2.1210 ha         1 ASB       0.219500
     98 H30         -7.3120     4.8400    -2.3030 ha         1 ASB       0.209750
     99 H31         -5.3570     6.1830    -1.7510 ha         1 ASB       0.209750
    100 H32         -3.1330     6.4030    -0.6590 ha         1 ASB       0.219500
    101 H33         -1.2660     5.3680     0.5460 ha         1 ASB       0.222250
    102 H34          0.4900     4.0200     0.7810 hn         1 ASB       0.350750
    103 H35          1.0720     1.2770     1.7040 h1         1 ASB       0.088575
    104 H36          1.1670     2.5590     2.8760 h1         1 ASB       0.088575
    105 H37          1.4520     2.9480    -1.4720 hc         1 ASB       0.057658
    106 H38          1.1680     1.3940    -0.6380 hc         1 ASB       0.057658
    107 H39          2.3330     1.4630    -1.9140 hc         1 ASB       0.057658
    108 H40          5.4670     3.2870    -2.2760 hc         1 ASB       0.057658
    109 H41          3.7680     3.1600    -2.5480 hc         1 ASB       0.057658
    110 H42          4.7270     1.6680    -2.4530 hc         1 ASB       0.057658
    111 H43         -3.2820     0.6490     0.8800 h1         1 ASB       0.109533
    112 H44         -3.8560     0.9120    -0.7970 h1         1 ASB       0.109533
    113 H45         -2.1400     1.0520    -0.4680 h1         1 ASB       0.109533
    114 H46         -5.2520     0.3860     2.1330 h1         1 ASB       0.109533
    115 H47         -6.4230     1.6770     2.6540 h1         1 ASB       0.109533
    116 H48         -4.7930     2.1060     2.1680 h1         1 ASB       0.109533
    117 H49         -4.2120    -3.7720     1.9270 hc         1 ASB       0.057658
    118 H50         -5.8340    -3.6900     1.3380 hc         1 ASB       0.057658
    119 H51         -5.1540    -2.2920     2.2310 hc         1 ASB       0.057658
    120 H52         -2.5800    -2.2170     2.1390 hc         1 ASB       0.057658
    121 H53         -1.7890    -3.5490     1.2520 hc         1 ASB       0.057658
    122 H54         -1.2180    -1.8630     1.1330 hc         1 ASB       0.057658
    123 H55          3.1820    -2.9410    -2.9110 h1         1 ASB       0.109533
    124 H56          3.7820    -1.5260    -1.9860 h1         1 ASB       0.109533
    125 H57          4.8740    -2.8860    -2.3910 h1         1 ASB       0.109533
    126 H58          5.0000    -0.2190     1.3190 h1         1 ASB       0.109533
    127 H59          4.3340    -0.3660    -0.3480 h1         1 ASB       0.109533
    128 H60          3.8420    -1.4890     0.9620 h1         1 ASB       0.109533
@<TRIPOS>BOND
     1     1     2 1   
     2     1    69 1   
     3     1    70 1   
     4     1    71 1   
     5     2     3 ar  
     6     2    48 ar  
     7     3     4 1   
     8     3     5 ar  
     9     4    72 1   
    10     4    73 1   
    11     4    74 1   
    12     5     6 1   
    13     5    51 ar  
    14     6     7 1   
    15     6    75 1   
    16     6    76 1   
    17     7     8 1   
    18     7    77 1   
    19     8     9 2   
    20     8    10 1   
    21    10    11 2   
    22    10    67 1   
    23    11    12 1   
    24    11    78 1   
    25    12    13 2   
    26    12    79 1   
    27    13    14 ar  
    28    13    66 ar  
    29    14    15 ar  
    30    14    80 1   
    31    15    16 ar  
    32    15    81 1   
    33    16    17 2   
    34    16    65 ar  
    35    17    18 1   
    36    17    82 1   
    37    18    19 2   
    38    18    83 1   
    39    19    20 1   
    40    19    63 1   
    41    20    21 2   
    42    20    22 1   
    43    22    23 1   
    44    22    84 1   
    45    23    24 1   
    46    23    85 1   
    47    23    86 1   
    48    24    25 ar  
    49    24    61 ar  
    50    25    26 1   
    51    25    27 ar  
    52    26    87 1   
    53    26    88 1   
    54    26    89 1   
    55    27    28 1   
    56    27    29 ar  
    57    28    90 1   
    58    28    91 1   
    59    28    92 1   
    60    29    30 1   
    61    29    59 ar  
    62    30    31 1   
    63    30    93 1   
    64    30    94 1   
    65    31    32 1   
    66    31    95 1   
    67    32    33 2   
    68    32    34 1   
    69    34    35 2   
    70    34    57 1   
    71    35    36 1   
    72    35    96 1   
    73    36    37 2   
    74    36    97 1   
    75    37    38 ar  
    76    37    56 ar  
    77    38    39 ar  
    78    38    98 1   
    79    39    40 ar  
    80    39    99 1   
    81    40    41 2   
    82    40    55 ar  
    83    41    42 1   
    84    41   100 1   
    85    42    43 2   
    86    42   101 1   
    87    43    44 1   
    88    43    53 1   
    89    44    45 2   
    90    44    46 1   
    91    46    47 1   
    92    46   102 1   
    93    47    48 1   
    94    47   103 1   
    95    47   104 1   
    96    48    49 ar  
    97    49    50 1   
    98    49    51 ar  
    99    50   105 1   
   100    50   106 1   
   101    50   107 1   
   102    51    52 1   
   103    52   108 1   
   104    52   109 1   
   105    52   110 1   
   106    53    54 1   
   107    53    55 1   
   108    54   111 1   
   109    54   112 1   
   110    54   113 1   
   111    55    56 ar  
   112    56    57 1   
   113    57    58 1   
   114    58   114 1   
   115    58   115 1   
   116    58   116 1   
   117    59    60 1   
   118    59    61 ar  
   119    60   117 1   
   120    60   118 1   
   121    60   119 1   
   122    61    62 1   
   123    62   120 1   
   124    62   121 1   
   125    62   122 1   
   126    63    64 1   
   127    63    65 1   
   128    64   123 1   
   129    64   124 1   
   130    64   125 1   
   131    65    66 ar  
   132    66    67 1   
   133    67    68 1   
   134    68   126 1   
   135    68   127 1   
   136    68   128 1   
@<TRIPOS>SUBSTRUCTURE
     1 ASB         1 TEMP              0 ****  ****    0 ROOT
