@<TRIPOS>MOLECULE
96
   64    66     1     0     0
SMALL
bcc


@<TRIPOS>ATOM
      1 C            6.2170     2.4670    -0.0670 C          0 96       -0.164400
      2 C1           5.4410     1.1750    -0.0600 C          0 96        0.491600
      3 N            6.0900     0.0260    -0.0560 N          0 96       -0.683500
      4 C2           5.4600    -1.1330    -0.0540 C          0 96        0.491600
      5 C3           6.2560    -2.4120    -0.0520 C          0 96       -0.164400
      6 C4           4.0670    -1.1890    -0.0540 C          0 96       -0.282650
      7 C5           3.3370     0.0030    -0.0570 C          0 96       -0.027500
      8 C6           4.0470     1.2080    -0.0530 C          0 96       -0.282650
      9 C7           3.3020     2.4880    -0.0450 C           0 96        0.676700
     10 O            3.8760     3.5590    -0.0640 O           0 96       -0.607850
     11 N1           1.9330     2.4060    -0.0160 N           0 96       -0.566650
     12 C8           1.2240     3.7040    -0.0380 C          0 96        0.089500
     13 C9          -0.0340     3.6060     0.8260 C          0 96       -0.124900
     14 C10         -1.2760     3.7180    -0.0590 C          0 96        0.089500
     15 N2          -1.9700     2.4130    -0.0910 N           0 96       -0.566650
     16 C11         -3.3410     2.4800    -0.0610 C           0 96        0.676700
     17 O1          -3.9280     3.5440    -0.0390 O           0 96       -0.607850
     18 C12         -4.0670     1.1890    -0.0560 C          0 96       -0.282650
     19 C13         -3.3370    -0.0040    -0.0680 C          0 96       -0.027500
     20 C14         -4.0480    -1.2080    -0.0620 C          0 96       -0.282650
     21 C15         -5.4410    -1.1740    -0.0520 C          0 96        0.491600
     22 C16         -6.2170    -2.4650    -0.0490 C          0 96       -0.164400
     23 N3          -6.0890    -0.0250    -0.0450 N          0 96       -0.683500
     24 C17         -5.4590     1.1340    -0.0460 C          0 96        0.491600
     25 C18         -6.2550     2.4130    -0.0370 C          0 96       -0.164400
     26 C19         -3.3030    -2.4880    -0.0580 C           0 96        0.676700
     27 O2          -3.8770    -3.5590    -0.0720 O           0 96       -0.607850
     28 N4          -1.9320    -2.4050    -0.0370 N           0 96       -0.566650
     29 C20         -1.2230    -3.7030    -0.0550 C          0 96        0.089500
     30 C21          0.0250    -3.6090     0.8220 C          0 96       -0.124900
     31 C22          1.2770    -3.7200    -0.0480 C          0 96        0.089500
     32 N5           1.9700    -2.4140    -0.0750 N           0 96       -0.566650
     33 C23          3.3410    -2.4800    -0.0460 C           0 96        0.676700
     34 O3           3.9290    -3.5430    -0.0210 O           0 96       -0.607850
     35 H            6.2910     2.8410    -1.0880 H          0 96        0.068117
     36 H1           5.7030     3.2020     0.5530 H          0 96        0.068117
     37 H2           7.2170     2.2920     0.3300 H          0 96        0.068117
     38 H3           6.3080    -2.8060     0.9630 H          0 96        0.068117
     39 H4           5.7730    -3.1420    -0.7010 H          0 96        0.068117
     40 H5           7.2640    -2.2130    -0.4160 H          0 96        0.068117
     41 H6           2.2570    -0.0050    -0.0590 H          0 96        0.151500
     42 H7           1.4630     1.5580     0.0150 H          0 96        0.319500
     43 H8           1.8770     4.4820     0.3570 H          0 96        0.060950
     44 H9           0.9440     3.9490    -1.0620 H          0 96        0.060950
     45 H10         -0.0430     2.6470     1.3450 H          0 96        0.059950
     46 H11         -0.0360     4.4140     1.5580 H          0 96        0.059950
     47 H12         -1.9450     4.4760     0.3470 H          0 96        0.060950
     48 H13         -0.9790     3.9970    -1.0700 H          0 96        0.060950
     49 H14         -1.4920     1.5700    -0.1310 H          0 96        0.319500
     50 H15         -2.2570     0.0050    -0.0820 H          0 96        0.151500
     51 H16         -6.2850    -2.8460     0.9710 H          0 96        0.068117
     52 H17         -7.2190    -2.2880    -0.4390 H          0 96        0.068117
     53 H18         -5.7070    -3.1970    -0.6760 H          0 96        0.068117
     54 H19         -6.3250     2.7900     0.9830 H          0 96        0.068117
     55 H20         -5.7590     3.1540    -0.6650 H          0 96        0.068117
     56 H21         -7.2560     2.2210    -0.4240 H          0 96        0.068117
     57 H22         -1.4630    -1.5570    -0.0120 H          0 96        0.319500
     58 H23         -1.8810    -4.4820     0.3290 H          0 96        0.060950
     59 H24         -0.9320    -3.9440    -1.0780 H          0 96        0.060950
     60 H25          0.0310    -2.6520     1.3450 H          0 96        0.059950
     61 H26          0.0180    -4.4190     1.5510 H          0 96        0.059950
     62 H27          1.9430    -4.4770     0.3670 H          0 96        0.060950
     63 H28          0.9920    -4.0020    -1.0620 H          0 96        0.060950
     64 H29          1.4910    -1.5720    -0.1080 H          0 96        0.319500
@<TRIPOS>BOND
     1     1     2 1   
     2     1    35 1   
     3     1    36 1   
     4     1    37 1   
     5     2     3 ar  
     6     2     8 ar  
     7     3     4 ar  
     8     4     5 1   
     9     4     6 ar  
    10     5    38 1   
    11     5    39 1   
    12     5    40 1   
    13     6     7 ar  
    14     6    33 1   
    15     7     8 ar  
    16     7    41 1   
    17     8     9 1   
    18     9    10 2   
    19     9    11 1   
    20    11    12 1   
    21    11    42 1   
    22    12    13 1   
    23    12    43 1   
    24    12    44 1   
    25    13    14 1   
    26    13    45 1   
    27    13    46 1   
    28    14    15 1   
    29    14    47 1   
    30    14    48 1   
    31    15    16 1   
    32    15    49 1   
    33    16    17 2   
    34    16    18 1   
    35    18    19 ar  
    36    18    24 ar  
    37    19    20 ar  
    38    19    50 1   
    39    20    21 ar  
    40    20    26 1   
    41    21    22 1   
    42    21    23 ar  
    43    22    51 1   
    44    22    52 1   
    45    22    53 1   
    46    23    24 ar  
    47    24    25 1   
    48    25    54 1   
    49    25    55 1   
    50    25    56 1   
    51    26    27 2   
    52    26    28 1   
    53    28    29 1   
    54    28    57 1   
    55    29    30 1   
    56    29    58 1   
    57    29    59 1   
    58    30    31 1   
    59    30    60 1   
    60    30    61 1   
    61    31    32 1   
    62    31    62 1   
    63    31    63 1   
    64    32    33 1   
    65    32    64 1   
    66    33    34 2   
@<TRIPOS>SUBSTRUCTURE
     1 96          1 TEMP              0 ****  ****    0 ROOT
