@<TRIPOS>MOLECULE
URE
  156   162     1     0     0
SMALL
bcc


@<TRIPOS>ATOM
      1 O1          -5.8010    -5.5230     1.6100 O           1 URE      -0.519500
      2 C1          -4.8480    -4.8970     1.1900 C           1 URE       0.646200
      3 O2          -3.6820    -4.8060     1.8550 O          1 URE      -0.602100
      4 C2          -4.7850    -4.1300    -0.0630 C          1 URE       0.000400
      5 C3          -4.0520    -4.6410    -1.1510 C          1 URE      -0.017100
      6 C4          -4.0290    -3.9140    -2.3510 C          1 URE      -0.031000
      7 C5          -4.7170    -2.7050    -2.4740 C          1 URE      -0.042100
      8 C6          -5.4500    -2.2200    -1.3890 C          1 URE      -0.031000
      9 C7          -5.4940    -2.9180    -0.1740 C          1 URE      -0.017100
     10 S1          -6.5600    -2.2650     1.1120 S          1 URE      -0.073650
     11 S2          -5.2500    -1.6230     2.5570 S          1 URE      -0.139600
     12 C8          -5.4420     0.2010     2.5400 C          1 URE      -0.045800
     13 C9          -4.4620     0.9300     1.6190 C          1 URE       0.066700
     14 C10         -5.2270     1.6660     0.5270 C           1 URE       0.615100
     15 O3          -5.5440     2.8480     0.5510 O           1 URE      -0.536750
     16 O4          -5.5100     0.8830    -0.5270 O          1 URE      -0.607350
     17 N1          -3.7050     1.9600     2.3460 N           1 URE      -0.531400
     18 C11         -2.6040     1.6470     3.0810 C           1 URE       0.766350
     19 O5          -2.2170     0.4890     3.2220 O           1 URE      -0.642600
     20 N2          -1.9030     2.6910     3.6040 N           1 URE      -0.464350
     21 C12         -2.2450     4.0370     3.8510 C          1 URE       0.033850
     22 C13         -3.5930     4.3930     4.0330 C          1 URE      -0.140750
     23 C14         -3.9730     5.7150     4.2670 C          1 URE      -0.124250
     24 C15         -3.0090     6.7080     4.3340 C          1 URE      -0.124250
     25 C16         -1.6630     6.3750     4.1760 C          1 URE      -0.140750
     26 C17         -1.2540     5.0460     3.9520 C          1 URE       0.033850
     27 N3           0.1420     4.8970     3.7380 N           1 URE      -0.464350
     28 C18          0.8960     3.7550     3.7190 C           1 URE       0.766350
     29 O6           0.5640     2.6700     4.1770 O           1 URE      -0.642600
     30 N4           2.0700     3.9340     3.0230 N           1 URE      -0.531400
     31 C19          2.9240     2.7830     2.6900 C          1 URE       0.066700
     32 C20          3.6740     2.2570     3.9220 C           1 URE       0.615100
     33 O7           3.7160     2.7830     5.0240 O           1 URE      -0.536750
     34 O8           4.4330     1.1650     3.6550 O          1 URE      -0.607350
     35 C21          2.1870     1.6610     1.9350 C          1 URE      -0.045800
     36 S3           2.0370     2.0400     0.1480 S          1 URE      -0.139600
     37 S4           1.9150     0.1570    -0.6570 S          1 URE      -0.073650
     38 C22          3.4840    -0.1430    -1.4850 C          1 URE      -0.017100
     39 C23          3.3540    -0.6120    -2.8090 C          1 URE      -0.031000
     40 C24          4.4640    -0.8890    -3.6070 C          1 URE      -0.042100
     41 C25          5.7370    -0.7760    -3.0340 C          1 URE      -0.031000
     42 C26          5.9100    -0.3610    -1.7040 C          1 URE      -0.017100
     43 S5           7.6020    -0.3130    -1.0960 S          1 URE      -0.073650
     44 S6           7.7280    -2.0420     0.0230 S          1 URE      -0.139600
     45 C27          7.8380    -1.4030     1.7350 C          1 URE      -0.045800
     46 C28          7.6140    -2.4960     2.7940 C          1 URE       0.066700
     47 C29          8.9560    -3.1700     3.0950 C           1 URE       0.615100
     48 O9           9.5890    -3.8890     2.3400 O           1 URE      -0.536750
     49 O10          9.4670    -2.8500     4.3060 O          1 URE      -0.607350
     50 N5           7.0780    -1.8930     4.0340 N           1 URE      -0.531400
     51 C30          5.8110    -1.5340     4.3650 C           1 URE       0.766350
     52 O11          5.6640    -0.6700     5.2280 O           1 URE      -0.642600
     53 N6           4.8040    -2.1190     3.6560 N           1 URE      -0.464350
     54 C31          3.4040    -1.9320     3.8290 C          1 URE       0.033850
     55 C32          2.8560    -1.3970     5.0000 C          1 URE      -0.140750
     56 C33          1.4750    -1.2370     5.1260 C          1 URE      -0.124250
     57 C34          0.6290    -1.6220     4.0910 C          1 URE      -0.124250
     58 C35          1.1580    -2.1730     2.9230 C          1 URE      -0.140750
     59 C36          2.5410    -2.3320     2.7800 C          1 URE       0.033850
     60 N7           3.1270    -2.7370     1.5580 N           1 URE      -0.464350
     61 C37          2.6140    -3.3870     0.4800 C           1 URE       0.766350
     62 O12          3.2060    -3.3420    -0.5950 O           1 URE      -0.642600
     63 N8           1.4820    -4.1150     0.6800 N           1 URE      -0.531400
     64 C38          0.9540    -4.9580    -0.4010 C          1 URE       0.066700
     65 C39          1.7070    -6.2840    -0.3350 C           1 URE       0.615100
     66 O13          2.0680    -6.8490     0.6890 O           1 URE      -0.536750
     67 O14          1.9460    -6.8340    -1.5400 O          1 URE      -0.607350
     68 C40         -0.5450    -5.1960    -0.2040 C          1 URE      -0.045800
     69 S7          -1.3260    -5.8350    -1.7260 S          1 URE      -0.139600
     70 S8          -3.2380    -6.2420    -1.0930 S          1 URE      -0.073650
     71 C41          4.7780    -0.0090    -0.9500 C          1 URE       0.000400
     72 C42          4.9910     0.5410     0.3870 C           1 URE       0.646200
     73 O15          5.3650     1.6670     0.6500 O           1 URE      -0.519500
     74 O16          4.7470    -0.3870     1.3250 O          1 URE      -0.602100
     75 S9           4.3990    -1.3880    -5.3240 S          1 URE      -0.027900
     76 S10          2.4300    -1.4750    -5.8930 S          1 URE      -0.190600
     77 C43          2.1030     0.1620    -6.6650 C          1 URE      -0.051300
     78 C44          1.3380     1.1620    -5.7710 C          1 URE       0.056700
     79 C45          2.2850     1.8830    -4.8080 C           1 URE       0.614100
     80 O17          2.0250     2.2180    -3.6620 O           1 URE      -0.515000
     81 O18          3.4530     2.2580    -5.3610 O          1 URE      -0.585100
     82 N9           0.1760     0.5030    -5.1290 N           1 URE      -0.580900
     83 C46         -0.9230     1.1630    -4.6540 C           1 URE       0.773600
     84 O19         -2.0170     0.8170    -5.0880 O           1 URE      -0.646100
     85 N10         -0.6730     2.1020    -3.7050 N           1 URE      -0.415600
     86 C47         -1.5410     2.8700    -2.8770 C          1 URE       0.018100
     87 C48         -0.8570     3.6390    -1.9120 C          1 URE      -0.128000
     88 C49         -1.5310     4.4290    -0.9800 C          1 URE      -0.121000
     89 C50         -2.9130     4.4880    -1.0120 C          1 URE      -0.121000
     90 C51         -3.6150     3.7520    -1.9670 C          1 URE      -0.128000
     91 C52         -2.9550     2.9230    -2.8920 C          1 URE       0.018100
     92 N11         -3.7080     2.1990    -3.8350 N           1 URE      -0.415600
     93 C53         -5.0310     1.8400    -3.7790 C           1 URE       0.773600
     94 O20         -5.7960     1.9680    -2.8310 O           1 URE      -0.646100
     95 N12         -5.4150     1.2700    -4.9770 N           1 URE      -0.580900
     96 C54         -6.8180     0.8780    -5.1850 C          1 URE       0.056700
     97 C55         -7.0450     0.5640    -6.6650 C           1 URE       0.614100
     98 O21         -8.1330     0.6060    -7.2190 O           1 URE      -0.515000
     99 O22         -5.9160     0.1650    -7.3060 O          1 URE      -0.585100
    100 C56         -7.2960    -0.3090    -4.3260 C          1 URE      -0.051300
    101 S11         -6.5470    -1.9420    -4.7300 S          1 URE      -0.190600
    102 S12         -4.6250    -1.8180    -4.0180 S          1 URE      -0.027900
    103 H1          -3.8540    -5.2780     2.6960 H          1 URE       0.466000
    104 H2          -3.4880    -4.3050    -3.2120 H          1 URE       0.169750
    105 H3          -6.0090    -1.2950    -1.4950 H          1 URE       0.169750
    106 H4          -5.2800     0.5080     3.5800 H          1 URE       0.101450
    107 H5          -6.4870     0.4450     2.3170 H          1 URE       0.101450
    108 H6          -3.7320     0.2660     1.1420 H          1 URE       0.126700
    109 H7          -5.8090     1.4870    -1.2580 H          1 URE       0.463000
    110 H8          -3.6870     2.8820     1.9230 H          1 URE       0.316750
    111 H9          -0.9710     2.4070     3.9070 H          1 URE       0.342250
    112 H10         -4.3750     3.6380     4.0360 H          1 URE       0.153750
    113 H11         -5.0230     5.9590     4.4070 H          1 URE       0.154500
    114 H12         -3.2990     7.7400     4.5150 H          1 URE       0.154500
    115 H13         -0.9320     7.1780     4.2370 H          1 URE       0.153750
    116 H14          0.6700     5.7520     3.6520 H          1 URE       0.342250
    117 H15          2.5610     4.7940     3.2180 H          1 URE       0.316750
    118 H16          3.7140     3.2060     2.0570 H          1 URE       0.126700
    119 H17          4.8130     0.9000     4.5360 H          1 URE       0.463000
    120 H18          1.1730     1.4890     2.3000 H          1 URE       0.101450
    121 H19          2.7010     0.7090     2.0490 H          1 URE       0.101450
    122 H20          2.3510    -0.7510    -3.2070 H          1 URE       0.169750
    123 H21          6.6140    -1.0300    -3.6300 H          1 URE       0.169750
    124 H22          7.1030    -0.6070     1.8590 H          1 URE       0.101450
    125 H23          8.8250    -0.9430     1.8600 H          1 URE       0.101450
    126 H24          6.9140    -3.2700     2.4670 H          1 URE       0.126700
    127 H25         10.3110    -3.3520     4.3520 H          1 URE       0.463000
    128 H26          7.7770    -1.4830     4.6470 H          1 URE       0.316750
    129 H27          5.0550    -2.7320     2.8980 H          1 URE       0.342250
    130 H28          3.4760    -1.1100     5.8440 H          1 URE       0.153750
    131 H29          1.0580    -0.8010     6.0310 H          1 URE       0.154500
    132 H30         -0.4450    -1.4590     4.1770 H          1 URE       0.154500
    133 H31          0.4660    -2.3850     2.1130 H          1 URE       0.153750
    134 H32          3.9960    -2.2640     1.3270 H          1 URE       0.342250
    135 H33          1.4380    -4.5210     1.6080 H          1 URE       0.316750
    136 H34          1.1660    -4.4590    -1.3540 H          1 URE       0.126700
    137 H35          2.4440    -7.6560    -1.3470 H          1 URE       0.463000
    138 H36         -0.7170    -5.9040     0.6150 H          1 URE       0.101450
    139 H37         -1.0380    -4.2520     0.0530 H          1 URE       0.101450
    140 H38          4.8070     0.1090     2.1830 H          1 URE       0.466000
    141 H39          3.0260     0.5770    -7.0800 H          1 URE       0.108700
    142 H40          1.4630    -0.0640    -7.5270 H          1 URE       0.108700
    143 H41          0.9250     1.9530    -6.4110 H          1 URE       0.108700
    144 H42          3.9270     2.7390    -4.6480 H          1 URE       0.449500
    145 H43         -0.1740    -0.2670    -5.6890 H          1 URE       0.343000
    146 H44          0.3030     2.1320    -3.4140 H          1 URE       0.314500
    147 H45          0.2310     3.6240    -1.8650 H          1 URE       0.163500
    148 H46         -0.9730     4.9940    -0.2380 H          1 URE       0.140000
    149 H47         -3.4560     5.1060    -0.3000 H          1 URE       0.140000
    150 H48         -4.6970     3.8550    -1.9720 H          1 URE       0.163500
    151 H49         -3.1620     1.6320    -4.4780 H          1 URE       0.314500
    152 H50         -4.9820     1.7740    -5.7450 H          1 URE       0.343000
    153 H51         -7.4200     1.7650    -4.9500 H          1 URE       0.108700
    154 H52         -5.1990    -0.0320    -6.6630 H          1 URE       0.449500
    155 H53         -7.1630    -0.1180    -3.2580 H          1 URE       0.108700
    156 H54         -8.3740    -0.4370    -4.4840 H          1 URE       0.108700
@<TRIPOS>BOND
     1     1     2 2   
     2     2     3 1   
     3     2     4 1   
     4     3   103 1   
     5     4     5 ar  
     6     4     9 ar  
     7     5     6 ar  
     8     5    70 1   
     9     6     7 ar  
    10     6   104 1   
    11     7     8 ar  
    12     7   102 1   
    13     8     9 ar  
    14     8   105 1   
    15     9    10 1   
    16    10    11 1   
    17    11    12 1   
    18    12    13 1   
    19    12   106 1   
    20    12   107 1   
    21    13    14 1   
    22    13    17 1   
    23    13   108 1   
    24    14    15 2   
    25    14    16 1   
    26    16   109 1   
    27    17    18 1   
    28    17   110 1   
    29    18    19 2   
    30    18    20 1   
    31    20    21 1   
    32    20   111 1   
    33    21    22 ar  
    34    21    26 ar  
    35    22    23 ar  
    36    22   112 1   
    37    23    24 ar  
    38    23   113 1   
    39    24    25 ar  
    40    24   114 1   
    41    25    26 ar  
    42    25   115 1   
    43    26    27 1   
    44    27    28 1   
    45    27   116 1   
    46    28    29 2   
    47    28    30 1   
    48    30    31 1   
    49    30   117 1   
    50    31    32 1   
    51    31    35 1   
    52    31   118 1   
    53    32    33 2   
    54    32    34 1   
    55    34   119 1   
    56    35    36 1   
    57    35   120 1   
    58    35   121 1   
    59    36    37 1   
    60    37    38 1   
    61    38    39 ar  
    62    38    71 ar  
    63    39    40 ar  
    64    39   122 1   
    65    40    41 ar  
    66    40    75 1   
    67    41    42 ar  
    68    41   123 1   
    69    42    43 1   
    70    42    71 ar  
    71    43    44 1   
    72    44    45 1   
    73    45    46 1   
    74    45   124 1   
    75    45   125 1   
    76    46    47 1   
    77    46    50 1   
    78    46   126 1   
    79    47    48 2   
    80    47    49 1   
    81    49   127 1   
    82    50    51 1   
    83    50   128 1   
    84    51    52 2   
    85    51    53 1   
    86    53    54 1   
    87    53   129 1   
    88    54    55 ar  
    89    54    59 ar  
    90    55    56 ar  
    91    55   130 1   
    92    56    57 ar  
    93    56   131 1   
    94    57    58 ar  
    95    57   132 1   
    96    58    59 ar  
    97    58   133 1   
    98    59    60 1   
    99    60    61 1   
   100    60   134 1   
   101    61    62 2   
   102    61    63 1   
   103    63    64 1   
   104    63   135 1   
   105    64    65 1   
   106    64    68 1   
   107    64   136 1   
   108    65    66 2   
   109    65    67 1   
   110    67   137 1   
   111    68    69 1   
   112    68   138 1   
   113    68   139 1   
   114    69    70 1   
   115    71    72 1   
   116    72    73 2   
   117    72    74 1   
   118    74   140 1   
   119    75    76 1   
   120    76    77 1   
   121    77    78 1   
   122    77   141 1   
   123    77   142 1   
   124    78    79 1   
   125    78    82 1   
   126    78   143 1   
   127    79    80 2   
   128    79    81 1   
   129    81   144 1   
   130    82    83 1   
   131    82   145 1   
   132    83    84 2   
   133    83    85 1   
   134    85    86 1   
   135    85   146 1   
   136    86    87 ar  
   137    86    91 ar  
   138    87    88 ar  
   139    87   147 1   
   140    88    89 ar  
   141    88   148 1   
   142    89    90 ar  
   143    89   149 1   
   144    90    91 ar  
   145    90   150 1   
   146    91    92 1   
   147    92    93 1   
   148    92   151 1   
   149    93    94 2   
   150    93    95 1   
   151    95    96 1   
   152    95   152 1   
   153    96    97 1   
   154    96   100 1   
   155    96   153 1   
   156    97    98 2   
   157    97    99 1   
   158    99   154 1   
   159   100   101 1   
   160   100   155 1   
   161   100   156 1   
   162   101   102 1   
@<TRIPOS>SUBSTRUCTURE
     1 URE         1 TEMP              0 ****  ****    0 ROOT
