@<TRIPOS>MOLECULE
ASB
   96   100     1     0     0
SMALL
bcc


@<TRIPOS>ATOM
      1 C           -4.6700    -1.8460    -2.5050 C          0 ASB      -0.067550
      2 C1          -4.8410    -0.9780    -1.2850 C          0 ASB      -0.064300
      3 C2          -4.9260     0.3950    -1.4260 C          0 ASB      -0.064300
      4 C3          -4.8530     1.0250    -2.7930 C          0 ASB      -0.067550
      5 C4          -5.0800     1.1890    -0.2970 C          0 ASB      -0.109550
      6 C5          -5.1340     0.6080     0.9480 C          0 ASB      -0.064300
      7 C6          -5.2830     1.4760     2.1700 C          0 ASB      -0.067550
      8 C7          -5.0540    -0.7650     1.0910 C          0 ASB      -0.064300
      9 C8          -5.1210    -1.3940     2.4590 C          0 ASB      -0.067550
     10 C9          -4.9170    -1.5590    -0.0390 C          0 ASB      -0.109550
     11 C10         -4.8300    -3.0590     0.1290 C          0 ASB       0.119300
     12 N           -3.4380    -3.3760     0.5180 N           0 ASB      -0.538150
     13 C11         -2.5880    -3.7000    -0.4950 C           0 ASB       0.670950
     14 O           -3.0190    -3.9490    -1.6040 O           0 ASB      -0.619350
     15 C12         -1.1360    -3.7470    -0.2320 C          0 ASB      -0.152100
     16 C13         -0.2310    -3.8890    -1.2870 C          0 ASB      -0.117750
     17 C14          1.1280    -3.8620    -1.0370 C          0 ASB       0.128600
     18 O1           2.0080    -3.9870    -2.0640 O          0 ASB      -0.506600
     19 C15          1.6010    -3.7040     0.2720 C          0 ASB      -0.152100
     20 C16          0.6960    -3.6770     1.3380 C          0 ASB      -0.117750
     21 C17         -0.6630    -3.6880     1.0870 C          0 ASB       0.128600
     22 O2          -1.5420    -3.6420     2.1200 O          0 ASB      -0.506600
     23 C18          3.0410    -3.4850     0.5190 C           0 ASB       0.670950
     24 O3           3.5020    -3.5840     1.6390 O           0 ASB      -0.619350
     25 N1           3.8430    -3.1690    -0.5400 N           0 ASB      -0.538150
     26 C19          5.1970    -2.6810    -0.1720 C          0 ASB       0.119300
     27 C20          5.1010    -1.1830    -0.0220 C          0 ASB      -0.109550
     28 C21          4.9620    -0.6250     1.2350 C          0 ASB      -0.064300
     29 C22          4.8950    -1.5110     2.4520 C          0 ASB      -0.067550
     30 C23          4.8840     0.7480     1.3720 C          0 ASB      -0.064300
     31 C24          4.7680     1.3600     2.7440 C          0 ASB      -0.067550
     32 C25          4.9100     1.5610     0.2550 C          0 ASB      -0.109550
     33 C26          4.8030     3.0610     0.3980 C          0 ASB       0.119300
     34 N2           3.4010     3.3840     0.7320 N           0 ASB      -0.538150
     35 C27          2.6170     3.7240    -0.3250 C           0 ASB       0.670950
     36 O4           3.1120     3.9930    -1.4030 O           0 ASB      -0.619350
     37 C28          1.1490     3.7610    -0.1380 C          0 ASB      -0.152100
     38 C29          0.3030     3.9210    -1.2440 C          0 ASB       0.128600
     39 O5           0.8270     4.1160    -2.4810 O          0 ASB      -0.506600
     40 C30         -1.0670     3.8780    -1.0700 C          0 ASB      -0.117750
     41 C31         -1.6100     3.6940     0.2020 C          0 ASB      -0.152100
     42 C32         -0.7570     3.6470     1.3200 C          0 ASB       0.128600
     43 O6          -1.2800     3.5780     2.5710 O          0 ASB      -0.506600
     44 C33          0.6140     3.6700     1.1450 C          0 ASB      -0.117750
     45 C34         -3.0580     3.4650     0.3670 C           0 ASB       0.670950
     46 O7          -3.5710     3.5240     1.4680 O           0 ASB      -0.619350
     47 N3          -3.8140     3.1860    -0.7370 N           0 ASB      -0.538150
     48 C35         -5.1790     2.6840    -0.4730 C          0 ASB       0.119300
     49 C36          5.0080     1.0020    -1.0050 C          0 ASB      -0.064300
     50 C37          5.0170     1.8860    -2.2250 C          0 ASB      -0.067550
     51 C38          5.0970    -0.3710    -1.1430 C          0 ASB      -0.064300
     52 C39          5.1890    -0.9840    -2.5170 C          0 ASB      -0.067550
     53 H           -3.6080    -1.9820    -2.7080 H          0 ASB       0.051033
     54 H1          -5.1340    -2.8160    -2.3290 H          0 ASB       0.051033
     55 H2          -5.1450    -1.3660    -3.3610 H          0 ASB       0.051033
     56 H3          -5.8560     1.1050    -3.2110 H          0 ASB       0.051033
     57 H4          -4.4130     2.0190    -2.7120 H          0 ASB       0.051033
     58 H5          -4.2360     0.4060    -3.4450 H          0 ASB       0.051033
     59 H6          -6.3300     1.5050     2.4700 H          0 ASB       0.051033
     60 H7          -4.6830     1.0660     2.9830 H          0 ASB       0.051033
     61 H8          -4.9430     2.4860     1.9420 H          0 ASB       0.051033
     62 H9          -6.1590    -1.6130     2.7080 H          0 ASB       0.051033
     63 H10         -4.5430    -2.3180     2.4630 H          0 ASB       0.051033
     64 H11         -4.7090    -0.7040     3.1960 H          0 ASB       0.051033
     65 H12         -5.5170    -3.3850     0.9100 H          0 ASB       0.076075
     66 H13         -5.0740    -3.5530    -0.8120 H          0 ASB       0.076075
     67 H14         -3.1480    -3.3540     1.4430 H          0 ASB       0.314500
     68 H15         -0.5930    -4.0210    -2.2960 H          0 ASB       0.167500
     69 H16          2.1250    -4.9350    -2.2170 H          0 ASB       0.447000
     70 H17          1.0580    -3.6480     2.3550 H          0 ASB       0.167500
     71 H18         -1.7230    -2.7070     2.2920 H          0 ASB       0.447000
     72 H19          3.5510    -3.2560    -1.4610 H          0 ASB       0.314500
     73 H20          5.5100    -3.1300     0.7700 H          0 ASB       0.076075
     74 H21          5.9090    -2.9310    -0.9590 H          0 ASB       0.076075
     75 H22          5.6910    -2.2540     2.4040 H          0 ASB       0.051033
     76 H23          5.0170    -0.9050     3.3500 H          0 ASB       0.051033
     77 H24          3.9290    -2.0150     2.4820 H          0 ASB       0.051033
     78 H25          5.7630     1.4730     3.1760 H          0 ASB       0.051033
     79 H26          4.2930     2.3380     2.6670 H          0 ASB       0.051033
     80 H27          4.1670     0.7120     3.3820 H          0 ASB       0.051033
     81 H28          5.4610     3.4040     1.1970 H          0 ASB       0.076075
     82 H29          5.0790     3.5420    -0.5400 H          0 ASB       0.076075
     83 H30          3.0630     3.3540     1.6410 H          0 ASB       0.314500
     84 H31          0.9460     3.2420    -2.8760 H          0 ASB       0.447000
     85 H32         -1.7210     3.9870    -1.9230 H          0 ASB       0.167500
     86 H33         -1.3770     2.6390     2.7820 H          0 ASB       0.447000
     87 H34          1.2690     3.6180     2.0010 H          0 ASB       0.167500
     88 H35         -3.4760     3.3100    -1.6380 H          0 ASB       0.314500
     89 H36         -5.8290     2.9160    -1.3170 H          0 ASB       0.076075
     90 H37         -5.5720     3.1410     0.4360 H          0 ASB       0.076075
     91 H38          6.0430     2.1600    -2.4670 H          0 ASB       0.051033
     92 H39          4.5760     1.3490    -3.0650 H          0 ASB       0.051033
     93 H40          4.4370     2.7870    -2.0250 H          0 ASB       0.051033
     94 H41          6.2360    -1.0690    -2.8060 H          0 ASB       0.051033
     95 H42          4.7340    -1.9740    -2.5040 H          0 ASB       0.051033
     96 H43          4.6640    -0.3520    -3.2330 H          0 ASB       0.051033
@<TRIPOS>BOND
     1     1     2 1   
     2     1    53 1   
     3     1    54 1   
     4     1    55 1   
     5     2     3 ar  
     6     2    10 ar  
     7     3     4 1   
     8     3     5 ar  
     9     4    56 1   
    10     4    57 1   
    11     4    58 1   
    12     5     6 ar  
    13     5    48 1   
    14     6     7 1   
    15     6     8 ar  
    16     7    59 1   
    17     7    60 1   
    18     7    61 1   
    19     8     9 1   
    20     8    10 ar  
    21     9    62 1   
    22     9    63 1   
    23     9    64 1   
    24    10    11 1   
    25    11    12 1   
    26    11    65 1   
    27    11    66 1   
    28    12    13 1   
    29    12    67 1   
    30    13    14 2   
    31    13    15 1   
    32    15    16 ar  
    33    15    21 ar  
    34    16    17 ar  
    35    16    68 1   
    36    17    18 1   
    37    17    19 ar  
    38    18    69 1   
    39    19    20 ar  
    40    19    23 1   
    41    20    21 ar  
    42    20    70 1   
    43    21    22 1   
    44    22    71 1   
    45    23    24 2   
    46    23    25 1   
    47    25    26 1   
    48    25    72 1   
    49    26    27 1   
    50    26    73 1   
    51    26    74 1   
    52    27    28 ar  
    53    27    51 ar  
    54    28    29 1   
    55    28    30 ar  
    56    29    75 1   
    57    29    76 1   
    58    29    77 1   
    59    30    31 1   
    60    30    32 ar  
    61    31    78 1   
    62    31    79 1   
    63    31    80 1   
    64    32    33 1   
    65    32    49 ar  
    66    33    34 1   
    67    33    81 1   
    68    33    82 1   
    69    34    35 1   
    70    34    83 1   
    71    35    36 2   
    72    35    37 1   
    73    37    38 ar  
    74    37    44 ar  
    75    38    39 1   
    76    38    40 ar  
    77    39    84 1   
    78    40    41 ar  
    79    40    85 1   
    80    41    42 ar  
    81    41    45 1   
    82    42    43 1   
    83    42    44 ar  
    84    43    86 1   
    85    44    87 1   
    86    45    46 2   
    87    45    47 1   
    88    47    48 1   
    89    47    88 1   
    90    48    89 1   
    91    48    90 1   
    92    49    50 1   
    93    49    51 ar  
    94    50    91 1   
    95    50    92 1   
    96    50    93 1   
    97    51    52 1   
    98    52    94 1   
    99    52    95 1   
   100    52    96 1   
@<TRIPOS>SUBSTRUCTURE
     1 ASB         1 TEMP              0 ****  ****    0 ROOT
