@<TRIPOS>MOLECULE
141
   78    80     1     0     0
SMALL
bcc


@<TRIPOS>ATOM
      1 C           -0.1510     5.2710     0.6820 C          0 141       0.087600
      2 N           -0.2340     3.9130     0.1300 N          0 141      -0.592800
      3 C1          -0.2940     2.9400     1.2290 C          0 141       0.087600
      4 C2          -1.4430     3.7920    -0.6960 C          0 141       0.093300
      5 C3          -2.6770     3.7380     0.2070 C          0 141       0.082000
      6 N1          -3.2850     2.3970     0.1030 N           0 141      -0.579400
      7 C4          -4.6420     2.3470    -0.0130 C           0 141       0.673200
      8 O           -5.3000     3.3690    -0.0400 O           0 141      -0.597100
      9 C5          -5.2960     1.0240    -0.1050 C          0 141      -0.161600
     10 C6          -4.5240    -0.1350    -0.0560 C          0 141      -0.018500
     11 C7          -5.1430    -1.3800    -0.1410 C          0 141      -0.161600
     12 C8          -6.5310    -1.4600    -0.2770 C          0 141      -0.064500
     13 C9          -7.2890    -0.3070    -0.3260 C          0 141      -0.130500
     14 C10         -6.6830     0.9310    -0.2410 C          0 141      -0.064500
     15 C11         -4.3260    -2.6120    -0.0860 C           0 141       0.673200
     16 O1          -4.8480    -3.7080    -0.1520 O           0 141      -0.597100
     17 N2          -2.9750    -2.4920     0.0420 N           0 141      -0.579400
     18 C12         -2.1990    -3.7460     0.0980 C          0 141       0.082000
     19 C13         -0.9080    -3.5650    -0.7040 C          0 141       0.093300
     20 N3           0.2480    -3.8680     0.1490 N          0 141      -0.592800
     21 C14          0.3670    -2.8430     1.1950 C          0 141       0.087600
     22 C15          0.0650    -5.1850     0.7730 C          0 141       0.087600
     23 C16          1.4700    -3.8780    -0.6670 C          0 141       0.093300
     24 C17          2.6950    -3.7810     0.2450 C          0 141       0.082000
     25 N4           3.2830    -2.4330     0.1140 N           0 141      -0.579400
     26 C18          4.6360    -2.3680    -0.0160 C           0 141       0.673200
     27 O2           5.3030    -3.3840    -0.0500 O           0 141      -0.597100
     28 C19          5.2830    -1.0420    -0.1150 C          0 141      -0.161600
     29 C20          6.6680    -0.9470    -0.2700 C          0 141      -0.064500
     30 C21          7.2730     0.2910    -0.3610 C          0 141      -0.130500
     31 C22          6.5140     1.4430    -0.2980 C          0 141      -0.064500
     32 C23          5.1290     1.3630    -0.1420 C          0 141      -0.161600
     33 C24          4.5120     0.1170    -0.0520 C          0 141      -0.018500
     34 C25          4.3170     2.5970    -0.0670 C           0 141       0.673200
     35 O3           4.8480     3.6890    -0.1270 O           0 141      -0.597100
     36 N5           2.9670     2.4910     0.0690 N           0 141      -0.579400
     37 C26          2.2100     3.7550     0.1670 C          0 141       0.082000
     38 C27          0.9510     3.6460    -0.6960 C          0 141       0.093300
     39 H            0.7460     5.3610     1.2950 H          0 141       0.098533
     40 H1          -0.1070     5.9930    -0.1340 H          0 141       0.098533
     41 H2          -1.0310     5.4690     1.2950 H          0 141       0.098533
     42 H3          -1.0920     3.2180     1.9180 H          0 141       0.098533
     43 H4          -0.4920     1.9470     0.8260 H          0 141       0.098533
     44 H5           0.6580     2.9330     1.7600 H          0 141       0.098533
     45 H6          -1.5160     4.6540    -1.3600 H          0 141       0.123700
     46 H7          -1.3870     2.8800    -1.2910 H          0 141       0.123700
     47 H8          -2.3820     3.9260     1.2390 H          0 141       0.075950
     48 H9          -3.3970     4.4910    -0.1130 H          0 141       0.075950
     49 H10         -2.7450     1.5910     0.1160 H          0 141       0.323500
     50 H11         -3.4510    -0.0680     0.0460 H          0 141       0.181500
     51 H12         -7.0110    -2.4250    -0.3440 H          0 141       0.146000
     52 H13         -8.3620    -0.3730    -0.4320 H          0 141       0.165000
     53 H14         -7.2820     1.8290    -0.2790 H          0 141       0.146000
     54 H15         -2.5440    -1.6240     0.0930 H          0 141       0.323500
     55 H16         -1.9550    -3.9780     1.1340 H          0 141       0.075950
     56 H17         -2.7850    -4.5580    -0.3320 H          0 141       0.075950
     57 H18         -0.9150    -4.2400    -1.5600 H          0 141       0.123700
     58 H19         -0.8400    -2.5350    -1.0550 H          0 141       0.123700
     59 H20         -0.5880    -2.7370     1.7100 H          0 141       0.098533
     60 H21          1.1340    -3.1410     1.9100 H          0 141       0.098533
     61 H22          0.6430    -1.8910     0.7420 H          0 141       0.098533
     62 H23         -0.1460    -5.9260     0.0020 H          0 141       0.098533
     63 H24          0.9730    -5.4640     1.3070 H          0 141       0.098533
     64 H25         -0.7700    -5.1430     1.4730 H          0 141       0.098533
     65 H26          1.5160    -4.8040    -1.2400 H          0 141       0.123700
     66 H27          1.4570    -3.0290    -1.3500 H          0 141       0.123700
     67 H28          2.3950    -3.9500     1.2790 H          0 141       0.075950
     68 H29          3.4300    -4.5300    -0.0510 H          0 141       0.075950
     69 H30          2.7320    -1.6350     0.1200 H          0 141       0.323500
     70 H31          7.2680    -1.8440    -0.3180 H          0 141       0.146000
     71 H32          8.3440     0.3590    -0.4810 H          0 141       0.165000
     72 H33          6.9940     2.4080    -0.3690 H          0 141       0.146000
     73 H34          3.4410     0.0490     0.0660 H          0 141       0.181500
     74 H35          2.5240     1.6280     0.1000 H          0 141       0.323500
     75 H36          1.9270     3.9320     1.2050 H          0 141       0.075950
     76 H37          2.8280     4.5790    -0.1900 H          0 141       0.075950
     77 H38          0.8840     2.6430    -1.1150 H          0 141       0.123700
     78 H39          1.0020     4.3750    -1.5050 H          0 141       0.123700
@<TRIPOS>BOND
     1     1     2 1   
     2     1    39 1   
     3     1    40 1   
     4     1    41 1   
     5     2     3 1   
     6     2     4 1   
     7     2    38 1   
     8     3    42 1   
     9     3    43 1   
    10     3    44 1   
    11     4     5 1   
    12     4    45 1   
    13     4    46 1   
    14     5     6 1   
    15     5    47 1   
    16     5    48 1   
    17     6     7 1   
    18     6    49 1   
    19     7     8 2   
    20     7     9 1   
    21     9    10 ar  
    22     9    14 ar  
    23    10    11 ar  
    24    10    50 1   
    25    11    12 ar  
    26    11    15 1   
    27    12    13 ar  
    28    12    51 1   
    29    13    14 ar  
    30    13    52 1   
    31    14    53 1   
    32    15    16 2   
    33    15    17 1   
    34    17    18 1   
    35    17    54 1   
    36    18    19 1   
    37    18    55 1   
    38    18    56 1   
    39    19    20 1   
    40    19    57 1   
    41    19    58 1   
    42    20    21 1   
    43    20    22 1   
    44    20    23 1   
    45    21    59 1   
    46    21    60 1   
    47    21    61 1   
    48    22    62 1   
    49    22    63 1   
    50    22    64 1   
    51    23    24 1   
    52    23    65 1   
    53    23    66 1   
    54    24    25 1   
    55    24    67 1   
    56    24    68 1   
    57    25    26 1   
    58    25    69 1   
    59    26    27 2   
    60    26    28 1   
    61    28    29 ar  
    62    28    33 ar  
    63    29    30 ar  
    64    29    70 1   
    65    30    31 ar  
    66    30    71 1   
    67    31    32 ar  
    68    31    72 1   
    69    32    33 ar  
    70    32    34 1   
    71    33    73 1   
    72    34    35 2   
    73    34    36 1   
    74    36    37 1   
    75    36    74 1   
    76    37    38 1   
    77    37    75 1   
    78    37    76 1   
    79    38    77 1   
    80    38    78 1   
@<TRIPOS>SUBSTRUCTURE
     1 141         1 TEMP              0 ****  ****    0 ROOT
