@<TRIPOS>MOLECULE
3
   56    56     1     0     0
SMALL
bcc


@<TRIPOS>ATOM
      1 C           -3.9970    -2.4560     0.3250 C          0 3         0.128400
      2 C1          -3.1290    -3.4870    -0.3990 C          0 3         0.128400
      3 O           -2.0620    -3.8990     0.4590 O          0 3        -0.429600
      4 C2          -1.0950    -4.5490    -0.3680 C          0 3         0.128400
      5 C3           0.2450    -4.6120     0.3690 C          0 3         0.128400
      6 O1           1.2140    -3.8350    -0.3370 O          0 3        -0.429600
      7 C4           2.4680    -4.0460     0.3150 C          0 3         0.128400
      8 C5           3.5450    -3.1990    -0.3650 C          0 3         0.128400
      9 O2           3.8550    -2.0720     0.4570 O          0 3        -0.429600
     10 C6           4.4620    -1.0960    -0.3920 C          0 3         0.128400
     11 C7           4.6050     0.2240     0.3690 C          0 3         0.128400
     12 O3           4.2360     1.3090    -0.4850 O          0 3        -0.429600
     13 C8           4.0200     2.4420     0.3580 C          0 3         0.128400
     14 C9           3.1430     3.4610    -0.3730 C          0 3         0.128400
     15 O4           2.0670     3.8620     0.4780 O          0 3        -0.429600
     16 C10          1.0790     4.4630    -0.3600 C          0 3         0.128400
     17 C11         -0.2440     4.5650     0.4030 C          0 3         0.128400
     18 O5          -1.3220     4.2080    -0.4640 O          0 3        -0.429600
     19 C12         -2.4690     4.0090     0.3640 C          0 3         0.128400
     20 C13         -3.4790     3.1220    -0.3680 C          0 3         0.128400
     21 O6          -3.8470     2.0270     0.4720 O          0 3        -0.429600
     22 C14         -4.5530     1.0950    -0.3500 C          0 3         0.128400
     23 C15         -4.6400    -0.2540     0.3670 C          0 3         0.128400
     24 O7          -4.1000    -1.2760    -0.4730 O          0 3        -0.429600
     25 H           -4.9910    -2.8700     0.4910 H          0 3         0.043700
     26 H1          -3.5420    -2.2070     1.2840 H          0 3         0.043700
     27 H2          -3.7370    -4.3530    -0.6630 H          0 3         0.043700
     28 H3          -2.7160    -3.0430    -1.3050 H          0 3         0.043700
     29 H4          -1.4320    -5.5600    -0.5960 H          0 3         0.043700
     30 H5          -0.9730    -3.9880    -1.2950 H          0 3         0.043700
     31 H6           0.1240    -4.2150     1.3770 H          0 3         0.043700
     32 H7           0.5800    -5.6480     0.4240 H          0 3         0.043700
     33 H8           2.3860    -3.7560     1.3630 H          0 3         0.043700
     34 H9           2.7390    -5.1000     0.2490 H          0 3         0.043700
     35 H10          4.4430    -3.8000    -0.5100 H          0 3         0.043700
     36 H11          3.1790    -2.8540    -1.3320 H          0 3         0.043700
     37 H12          5.4470    -1.4450    -0.7010 H          0 3         0.043700
     38 H13          3.8390    -0.9420    -1.2720 H          0 3         0.043700
     39 H14          3.9530     0.2120     1.2430 H          0 3         0.043700
     40 H15          5.6390     0.3490     0.6900 H          0 3         0.043700
     41 H16          3.5210     2.1250     1.2730 H          0 3         0.043700
     42 H17          4.9780     2.8990     0.6050 H          0 3         0.043700
     43 H18          3.7410     4.3330    -0.6380 H          0 3         0.043700
     44 H19          2.7390     3.0090    -1.2800 H          0 3         0.043700
     45 H20          1.4080     5.4610    -0.6510 H          0 3         0.043700
     46 H21          0.9380     3.8530    -1.2520 H          0 3         0.043700
     47 H22         -0.2240     3.8860     1.2560 H          0 3         0.043700
     48 H23         -0.3830     5.5870     0.7540 H          0 3         0.043700
     49 H24         -2.1670     3.5260     1.2930 H          0 3         0.043700
     50 H25         -2.9270     4.9730     0.5880 H          0 3         0.043700
     51 H26         -4.3660     3.7070    -0.6120 H          0 3         0.043700
     52 H27         -3.0300     2.7420    -1.2850 H          0 3         0.043700
     53 H28         -5.5590     1.4690    -0.5420 H          0 3         0.043700
     54 H29         -4.0240     0.9710    -1.2950 H          0 3         0.043700
     55 H30         -4.0710    -0.2090     1.2960 H          0 3         0.043700
     56 H31         -5.6820    -0.4800     0.5900 H          0 3         0.043700
@<TRIPOS>BOND
     1     1     2 1   
     2     1    24 1   
     3     1    25 1   
     4     1    26 1   
     5     2     3 1   
     6     2    27 1   
     7     2    28 1   
     8     3     4 1   
     9     4     5 1   
    10     4    29 1   
    11     4    30 1   
    12     5     6 1   
    13     5    31 1   
    14     5    32 1   
    15     6     7 1   
    16     7     8 1   
    17     7    33 1   
    18     7    34 1   
    19     8     9 1   
    20     8    35 1   
    21     8    36 1   
    22     9    10 1   
    23    10    11 1   
    24    10    37 1   
    25    10    38 1   
    26    11    12 1   
    27    11    39 1   
    28    11    40 1   
    29    12    13 1   
    30    13    14 1   
    31    13    41 1   
    32    13    42 1   
    33    14    15 1   
    34    14    43 1   
    35    14    44 1   
    36    15    16 1   
    37    16    17 1   
    38    16    45 1   
    39    16    46 1   
    40    17    18 1   
    41    17    47 1   
    42    17    48 1   
    43    18    19 1   
    44    19    20 1   
    45    19    49 1   
    46    19    50 1   
    47    20    21 1   
    48    20    51 1   
    49    20    52 1   
    50    21    22 1   
    51    22    23 1   
    52    22    53 1   
    53    22    54 1   
    54    23    24 1   
    55    23    55 1   
    56    23    56 1   
@<TRIPOS>SUBSTRUCTURE
     1 3           1 TEMP              0 ****  ****    0 ROOT
