@<TRIPOS>MOLECULE
45
   90    94     1     0     0
SMALL
bcc


@<TRIPOS>ATOM
      1 C1          -2.7260     2.9220     3.1410 C          1 45       -0.109250
      2 C2          -1.9500     1.8420     2.7320 C          1 45       -0.190500
      3 C3          -2.1960     1.2220     1.5020 C          1 45        0.124100
      4 O1          -1.4790     0.1440     1.0360 O          1 45       -0.336150
      5 C4          -0.2450    -0.1590     1.6930 C          1 45        0.106150
      6 C5           0.4740    -1.2550     0.9090 C          1 45        0.118900
      7 O2          -0.0680    -2.5350     1.2560 O          1 45       -0.424350
      8 C6           0.5310    -3.5740     0.4800 C          1 45        0.115650
      9 C7           0.1560    -4.9290     1.0690 C          1 45        0.112150
     10 O3           0.7760    -5.9650     0.3060 O          1 45       -0.436600
     11 C8           0.7540    -7.2140     1.0030 C          1 45        0.112150
     12 C9           1.3990    -8.3090     0.1520 C          1 45        0.115650
     13 O4           2.8110    -8.1130     0.0210 O          1 45       -0.424350
     14 C10          3.1700    -7.2710    -1.0770 C          1 45        0.118900
     15 C11          4.0100    -6.0900    -0.5960 C          1 45        0.106150
     16 O5           4.5560    -5.3620    -1.7090 O          1 45       -0.336150
     17 C12          3.8110    -4.2410    -1.9910 C          1 45        0.124100
     18 C13          2.8170    -4.3610    -2.9630 C          1 45       -0.190500
     19 C14          2.0420    -3.2580    -3.2930 C          1 45       -0.109250
     20 C15          2.2770    -2.0360    -2.6640 C          1 45       -0.125750
     21 C16          3.3010    -1.8750    -1.7020 C          1 45       -0.032000
     22 C17          3.5510    -0.6330    -1.0610 C          1 45        0.124100
     23 C18          4.6000    -0.5110    -0.1460 C          1 45       -0.190500
     24 C19          5.3930    -1.6130     0.1610 C          1 45       -0.109250
     25 C20          5.1410    -2.8440    -0.4410 C          1 45       -0.125750
     26 C21          4.0960    -3.0020    -1.3730 C          1 45       -0.032000
     27 O6           2.7070     0.3980    -1.4000 O          1 45       -0.336150
     28 C22          2.7550     1.5870    -0.6150 C          1 45        0.106150
     29 C23          1.5600     2.4550    -0.9960 C          1 45        0.118900
     30 O7           1.5710     3.6550    -0.2240 O          1 45       -0.424350
     31 C24          0.4160     4.4500    -0.4970 C          1 45        0.115650
     32 C25          0.5120     5.7770     0.2560 C          1 45        0.112150
     33 O8          -0.6250     6.6020    -0.0080 O          1 45       -0.436600
     34 C26         -1.7100     6.3260     0.8790 C          1 45        0.112150
     35 C27         -2.9880     6.9510     0.3310 C          1 45        0.115650
     36 O9          -4.0720     6.6310     1.2010 O          1 45       -0.424350
     37 C28         -5.3550     6.7220     0.5730 C          1 45        0.118900
     38 C29         -5.6800     5.4700    -0.2520 C          1 45        0.106150
     39 O10         -5.8080     4.3450     0.6330 O          1 45       -0.336150
     40 C30         -5.0500     3.2710     0.2280 C          1 45        0.124100
     41 C31         -5.3420     2.6390    -0.9830 C          1 45       -0.190500
     42 C32         -4.5850     1.5470    -1.3880 C          1 45       -0.109250
     43 C33         -3.5480     1.0830    -0.5770 C          1 45       -0.125750
     44 C34         -3.2460     1.6850     0.6650 C          1 45       -0.032000
     45 C35         -4.0270     2.7940     1.0790 C          1 45       -0.032000
     46 C36         -3.7510     3.3910     2.3240 C          1 45       -0.125750
     47 H1          -2.5380     3.3990     4.0990 H          1 45        0.135250
     48 H2          -1.1710     1.4970     3.4030 H          1 45        0.140250
     49 H3           0.3880     0.7360     1.7020 H          1 45        0.058950
     50 H4          -0.4420    -0.5060     2.7140 H          1 45        0.058950
     51 H5           1.5350    -1.2520     1.1810 H          1 45        0.056200
     52 H6           0.3620    -1.0920    -0.1690 H          1 45        0.056200
     53 H7           0.1890    -3.5030    -0.5580 H          1 45        0.053325
     54 H8           1.6220    -3.4730     0.4860 H          1 45        0.053325
     55 H9           0.4850    -4.9690     2.1150 H          1 45        0.049700
     56 H10         -0.9310    -5.0640     1.0570 H          1 45        0.049700
     57 H11         -0.2850    -7.4830     1.2220 H          1 45        0.049700
     58 H12          1.3100    -7.1040     1.9400 H          1 45        0.049700
     59 H13          0.9270    -8.3920    -0.8330 H          1 45        0.053325
     60 H14          1.2660    -9.2680     0.6640 H          1 45        0.053325
     61 H15          3.7590    -7.8750    -1.7770 H          1 45        0.056200
     62 H16          2.2970    -6.9200    -1.6380 H          1 45        0.056200
     63 H17          4.8590    -6.4660    -0.0130 H          1 45        0.058950
     64 H18          3.4390    -5.4520     0.0920 H          1 45        0.058950
     65 H19          2.6480    -5.3110    -3.4600 H          1 45        0.140250
     66 H20          1.2590    -3.3450    -4.0410 H          1 45        0.135250
     67 H21          1.6540    -1.1870    -2.9420 H          1 45        0.148000
     68 H22          4.8340     0.4320     0.3370 H          1 45        0.140250
     69 H23          6.2130    -1.5150     0.8680 H          1 45        0.135250
     70 H24          5.7790    -3.6890    -0.1890 H          1 45        0.148000
     71 H25          2.6960     1.3590     0.4570 H          1 45        0.058950
     72 H26          3.6850     2.1360    -0.8090 H          1 45        0.058950
     73 H27          0.6300     1.8990    -0.8180 H          1 45        0.056200
     74 H28          1.6020     2.6980    -2.0650 H          1 45        0.056200
     75 H29         -0.4830     3.9000    -0.1970 H          1 45        0.053325
     76 H30          0.3390     4.6480    -1.5730 H          1 45        0.053325
     77 H31          0.6480     5.6190     1.3330 H          1 45        0.049700
     78 H32          1.4000     6.3180    -0.0890 H          1 45        0.049700
     79 H33         -1.8560     5.2480     0.9900 H          1 45        0.049700
     80 H34         -1.4830     6.7320     1.8720 H          1 45        0.049700
     81 H35         -3.1590     6.5830    -0.6870 H          1 45        0.053325
     82 H36         -2.8850     8.0400     0.2690 H          1 45        0.053325
     83 H37         -5.4070     7.6260    -0.0440 H          1 45        0.056200
     84 H38         -6.0870     6.8190     1.3810 H          1 45        0.056200
     85 H39         -6.6440     5.6050    -0.7540 H          1 45        0.058950
     86 H40         -4.9120     5.3120    -1.0190 H          1 45        0.058950
     87 H41         -6.1620     2.9880    -1.6030 H          1 45        0.140250
     88 H42         -4.8030     1.0480    -2.3280 H          1 45        0.135250
     89 H43         -2.9720     0.2220    -0.9150 H          1 45        0.148000
     90 H44         -4.3420     4.2410     2.6640 H          1 45        0.148000
@<TRIPOS>BOND
     1     1     2 ar  
     2     1    46 ar  
     3     1    47 1   
     4     2     3 ar  
     5     2    48 1   
     6     3     4 1   
     7     3    44 ar  
     8     4     5 1   
     9     5     6 1   
    10     5    49 1   
    11     5    50 1   
    12     6     7 1   
    13     6    51 1   
    14     6    52 1   
    15     7     8 1   
    16     8     9 1   
    17     8    53 1   
    18     8    54 1   
    19     9    10 1   
    20     9    55 1   
    21     9    56 1   
    22    10    11 1   
    23    11    12 1   
    24    11    57 1   
    25    11    58 1   
    26    12    13 1   
    27    12    59 1   
    28    12    60 1   
    29    13    14 1   
    30    14    15 1   
    31    14    61 1   
    32    14    62 1   
    33    15    16 1   
    34    15    63 1   
    35    15    64 1   
    36    16    17 1   
    37    17    18 ar  
    38    17    26 ar  
    39    18    19 ar  
    40    18    65 1   
    41    19    20 ar  
    42    19    66 1   
    43    20    21 ar  
    44    20    67 1   
    45    21    22 ar  
    46    21    26 ar  
    47    22    23 ar  
    48    22    27 1   
    49    23    24 ar  
    50    23    68 1   
    51    24    25 ar  
    52    24    69 1   
    53    25    26 ar  
    54    25    70 1   
    55    27    28 1   
    56    28    29 1   
    57    28    71 1   
    58    28    72 1   
    59    29    30 1   
    60    29    73 1   
    61    29    74 1   
    62    30    31 1   
    63    31    32 1   
    64    31    75 1   
    65    31    76 1   
    66    32    33 1   
    67    32    77 1   
    68    32    78 1   
    69    33    34 1   
    70    34    35 1   
    71    34    79 1   
    72    34    80 1   
    73    35    36 1   
    74    35    81 1   
    75    35    82 1   
    76    36    37 1   
    77    37    38 1   
    78    37    83 1   
    79    37    84 1   
    80    38    39 1   
    81    38    85 1   
    82    38    86 1   
    83    39    40 1   
    84    40    41 ar  
    85    40    45 ar  
    86    41    42 ar  
    87    41    87 1   
    88    42    43 ar  
    89    42    88 1   
    90    43    44 ar  
    91    43    89 1   
    92    44    45 ar  
    93    45    46 ar  
    94    46    90 1   
@<TRIPOS>SUBSTRUCTURE
     1 45          1 TEMP              0 ****  ****    0 ROOT
