@<TRIPOS>MOLECULE
111
  108   124     1     0     0
SMALL
bcc


@<TRIPOS>ATOM
      1 O            5.9210     3.0290     2.4630 O           0 111      -0.585750
      2 C            5.2450     2.7770     1.4840 C           0 111       0.725600
      3 N            5.7870     2.4250     0.2830 N           0 111      -0.510900
      4 C1           6.1590     1.0860     0.0310 C          0 111       0.122200
      5 H            5.4000     0.7560    -0.7560 H          0 111       0.051700
      6 C2           7.4850     0.6700    -0.5910 C          0 111      -0.095150
      7 C3           7.2810    -0.7460    -1.1780 C          0 111      -0.095150
      8 C4           6.9650    -1.7360    -0.0450 C          0 111       0.122200
      9 C5           6.8900    -0.9530     1.2810 C          0 111      -0.095150
     10 C6           5.8520     0.1520     1.2240 C          0 111      -0.095150
     11 N1           5.7130    -2.4320    -0.2430 N           0 111      -0.510900
     12 C7           5.0960    -2.9890     0.8600 C           0 111       0.725600
     13 O1           5.7680    -3.3600     1.8040 O           0 111      -0.585750
     14 C8           3.6310    -3.1380     0.9050 C          0 111      -0.149100
     15 C9           2.9220    -3.5220     2.0390 C          0 111      -0.046500
     16 C10          1.5390    -3.4880     2.0770 C          0 111      -0.128250
     17 C11          0.7730    -3.0930     0.9840 C          0 111       0.007250
     18 C12         -0.6850    -2.8760     1.0540 C          0 111       0.007500
     19 C13         -1.4070    -2.9910     2.2400 C          0 111      -0.128750
     20 C14         -2.7610    -2.6910     2.3180 C          0 111      -0.045250
     21 C15         -3.4830    -2.2570     1.2100 C          0 111      -0.142100
     22 C16         -4.8960    -1.8430     1.2790 C           0 111       0.720100
     23 O2          -5.4980    -1.9590     2.3290 O           0 111      -0.594500
     24 N2          -5.5490    -1.3260     0.1840 N           0 111      -0.494900
     25 C17         -6.7510    -0.5570     0.4030 C          0 111       0.090700
     26 H1          -6.7980    -0.2990     1.4810 H          0 111       0.110700
     27 C18         -8.0330    -1.3130     0.0690 C          0 111      -0.090400
     28 C19         -9.2170    -0.4660     0.5540 C          0 111      -0.078900
     29 C20         -9.2160     0.9010    -0.1270 C          0 111      -0.078900
     30 C21         -7.9020     1.6450     0.1530 C          0 111      -0.090400
     31 C22         -6.7500     0.7840    -0.3600 C          0 111       0.090700
     32 N3          -5.4800     1.4360    -0.2380 N           0 111      -0.494900
     33 C23         -4.8820     1.7050     0.9770 C           0 111       0.720100
     34 O3          -5.5640     1.6880     1.9830 O           0 111      -0.594500
     35 C24         -3.4420     2.0110     1.0960 C          0 111      -0.142100
     36 C25         -2.7790     2.1690     2.3100 C          0 111      -0.045250
     37 C26         -1.4130     2.3950     2.4010 C          0 111      -0.128750
     38 C27         -0.5840     2.5030     1.2860 C          0 111       0.007500
     39 C28          0.8830     2.6740     1.3660 C          0 111       0.007250
     40 C29          1.5820     2.7000     2.5720 C          0 111      -0.128250
     41 C30          2.9720     2.7710     2.6330 C          0 111      -0.046500
     42 C31          3.7570     2.8220     1.4980 C          0 111      -0.149100
     43 C32          3.0640     2.9410     0.2570 C          0 111       0.014500
     44 C33          3.8410     3.1690    -0.9100 C          0 111      -0.149100
     45 C34          3.1420     3.3630    -2.0970 C          0 111      -0.046500
     46 C35          1.7600     3.2080    -2.1680 C          0 111      -0.128250
     47 C36          0.9800     2.8880    -1.0570 C          0 111       0.007250
     48 C37         -0.4710     2.6190    -1.1440 C          0 111       0.007500
     49 C38         -1.2420     2.4340     0.0250 C          0 111      -0.032500
     50 C39         -2.6320     2.1700    -0.0610 C          0 111       0.015500
     51 C40         -3.2970     2.0500    -1.3100 C          0 111      -0.142100
     52 C41         -2.5040     2.2500    -2.4380 C          0 111      -0.045250
     53 C42         -1.1610     2.5280    -2.3490 C          0 111      -0.128750
     54 C43         -4.7350     1.7210    -1.3730 C           0 111       0.720100
     55 O4          -5.2810     1.6850    -2.4580 O           0 111      -0.594500
     56 C44          1.6600     2.8380     0.1870 C          0 111      -0.032500
     57 C45          5.3300     3.0990    -0.8450 C           0 111       0.725600
     58 O5           6.0620     3.5700    -1.6940 O           0 111      -0.585750
     59 C46         -4.9650    -1.4610    -1.0450 C           0 111       0.720100
     60 O6          -5.6190    -1.2370    -2.0450 O           0 111      -0.594500
     61 C47         -3.5520    -1.8740    -1.1780 C          0 111      -0.142100
     62 C48         -2.7950    -2.2280    -0.0310 C          0 111       0.015500
     63 C49         -1.4170    -2.5320    -0.1160 C          0 111      -0.032500
     64 C50         -0.7440    -2.5030    -1.3670 C          0 111       0.007500
     65 C51         -1.5320    -2.2540    -2.4900 C          0 111      -0.128750
     66 C52         -2.8870    -1.9480    -2.3990 C          0 111      -0.045250
     67 C53          0.7200    -2.6730    -1.4340 C          0 111       0.007250
     68 C54          1.4610    -2.8950    -0.2420 C          0 111      -0.032500
     69 C55          2.8710    -2.9020    -0.2710 C          0 111       0.014500
     70 C56          3.5890    -2.6980    -1.4780 C          0 111      -0.149100
     71 C57          2.8320    -2.6480    -2.6480 C          0 111      -0.046500
     72 C58          1.4440    -2.6390    -2.6200 C          0 111      -0.128250
     73 C59          5.0510    -2.4780    -1.4380 C           0 111       0.725600
     74 O7           5.6690    -2.3390    -2.4770 O           0 111      -0.585750
     75 H2           7.7590     1.3660    -1.3840 H          0 111       0.067575
     76 H3           8.2640     0.6480     0.1720 H          0 111       0.067575
     77 H4           6.4530    -0.7290    -1.8870 H          0 111       0.067575
     78 H5           8.1900    -1.0610    -1.6910 H          0 111       0.067575
     79 H6           7.7940    -2.4490     0.0310 H          0 111       0.051700
     80 H7           6.6320    -1.6410     2.0860 H          0 111       0.067575
     81 H8           7.8650    -0.5140     1.4900 H          0 111       0.067575
     82 H9           5.8800     0.7250     2.1510 H          0 111       0.067575
     83 H10          4.8620    -0.2850     1.0970 H          0 111       0.067575
     84 H11          3.4650    -3.8550     2.9120 H          0 111       0.167750
     85 H12          1.0360    -3.7790     2.9880 H          0 111       0.145500
     86 H13         -0.8950    -3.3240     3.1310 H          0 111       0.146000
     87 H14         -3.2680    -2.7980     3.2650 H          0 111       0.169500
     88 H15         -8.1040    -1.4630    -1.0080 H          0 111       0.061200
     89 H16         -8.0370    -2.2770     0.5780 H          0 111       0.061200
     90 H17        -10.1480    -0.9820     0.3200 H          0 111       0.046950
     91 H18         -9.1430    -0.3300     1.6330 H          0 111       0.046950
     92 H19         -9.3300     0.7670    -1.2030 H          0 111       0.046950
     93 H20        -10.0510     1.4920     0.2510 H          0 111       0.046950
     94 H21         -7.9040     2.6040    -0.3660 H          0 111       0.061200
     95 H22         -7.7920     1.8060     1.2250 H          0 111       0.061200
     96 H23         -6.9430     0.5580    -1.4210 H          0 111       0.110700
     97 H24         -3.3540     2.1140     3.2220 H          0 111       0.169500
     98 H25         -0.9720     2.4930     3.3820 H          0 111       0.146000
     99 H26          1.0230     2.6630     3.4960 H          0 111       0.145500
    100 H27          3.4510     2.7860     3.6010 H          0 111       0.167750
    101 H28          3.6860     3.6410    -2.9870 H          0 111       0.167750
    102 H29          1.2720     3.3420    -3.1220 H          0 111       0.145500
    103 H30         -2.9640     2.1880    -3.4130 H          0 111       0.169500
    104 H31         -0.6050     2.6770    -3.2630 H          0 111       0.146000
    105 H32         -1.0750    -2.3000    -3.4670 H          0 111       0.146000
    106 H33         -3.4420    -1.7630    -3.3070 H          0 111       0.169500
    107 H34          3.3390    -2.6170    -3.6010 H          0 111       0.167750
    108 H35          0.9060    -2.6040    -3.5560 H          0 111       0.145500
@<TRIPOS>BOND
     1     1     2 2   
     2     2     3 1   
     3     2    42 1   
     4     3     4 1   
     5     3    57 1   
     6     4     5 1   
     7     4     6 1   
     8     4    10 1   
     9     6     7 1   
    10     6    75 1   
    11     6    76 1   
    12     7     8 1   
    13     7    77 1   
    14     7    78 1   
    15     8     9 1   
    16     8    11 1   
    17     8    79 1   
    18     9    10 1   
    19     9    80 1   
    20     9    81 1   
    21    10    82 1   
    22    10    83 1   
    23    11    12 1   
    24    11    73 1   
    25    12    13 2   
    26    12    14 1   
    27    14    15 ar  
    28    14    69 ar  
    29    15    16 ar  
    30    15    84 1   
    31    16    17 ar  
    32    16    85 1   
    33    17    18 ar  
    34    17    68 ar  
    35    18    19 ar  
    36    18    63 ar  
    37    19    20 ar  
    38    19    86 1   
    39    20    21 ar  
    40    20    87 1   
    41    21    22 1   
    42    21    62 ar  
    43    22    23 2   
    44    22    24 1   
    45    24    25 1   
    46    24    59 1   
    47    25    26 1   
    48    25    27 1   
    49    25    31 1   
    50    27    28 1   
    51    27    88 1   
    52    27    89 1   
    53    28    29 1   
    54    28    90 1   
    55    28    91 1   
    56    29    30 1   
    57    29    92 1   
    58    29    93 1   
    59    30    31 1   
    60    30    94 1   
    61    30    95 1   
    62    31    32 1   
    63    31    96 1   
    64    32    33 1   
    65    32    54 1   
    66    33    34 2   
    67    33    35 1   
    68    35    36 ar  
    69    35    50 ar  
    70    36    37 ar  
    71    36    97 1   
    72    37    38 ar  
    73    37    98 1   
    74    38    39 ar  
    75    38    49 ar  
    76    39    40 ar  
    77    39    56 ar  
    78    40    41 ar  
    79    40    99 1   
    80    41    42 ar  
    81    41   100 1   
    82    42    43 ar  
    83    43    44 ar  
    84    43    56 ar  
    85    44    45 ar  
    86    44    57 1   
    87    45    46 ar  
    88    45   101 1   
    89    46    47 ar  
    90    46   102 1   
    91    47    48 ar  
    92    47    56 ar  
    93    48    49 ar  
    94    48    53 ar  
    95    49    50 ar  
    96    50    51 ar  
    97    51    52 ar  
    98    51    54 1   
    99    52    53 ar  
   100    52   103 1   
   101    53   104 1   
   102    54    55 2   
   103    57    58 2   
   104    59    60 2   
   105    59    61 1   
   106    61    62 ar  
   107    61    66 ar  
   108    62    63 ar  
   109    63    64 ar  
   110    64    65 ar  
   111    64    67 ar  
   112    65    66 ar  
   113    65   105 1   
   114    66   106 1   
   115    67    68 ar  
   116    67    72 ar  
   117    68    69 ar  
   118    69    70 ar  
   119    70    71 ar  
   120    70    73 1   
   121    71    72 ar  
   122    71   107 1   
   123    72   108 1   
   124    73    74 2   
@<TRIPOS>SUBSTRUCTURE
     1 111         1 TEMP              0 ****  ****    0 ROOT
