@<TRIPOS>MOLECULE
ASB
   98   104     1     0     0
SMALL
bcc


@<TRIPOS>ATOM
      1 C           10.6970     0.3820    -0.0450 C          0 ASB      -0.035300
      2 C1           9.1940     0.2730    -0.0280 C          0 ASB      -0.159800
      3 C2           8.4130     1.4080    -0.0140 C          0 ASB       0.242100
      4 O            9.0080     2.6260    -0.0170 O          0 ASB      -0.491850
      5 C3           6.9970     1.3230     0.0020 C          0 ASB      -0.271100
      6 C4           6.3930     0.0700    -0.0040 C          0 ASB      -0.012000
      7 C5           7.1750    -1.0810    -0.0120 C          0 ASB      -0.271100
      8 C6           8.5850    -0.9640    -0.0310 C          0 ASB       0.242100
      9 O1           9.3470    -2.0840    -0.0430 O          0 ASB      -0.491850
     10 C7           6.6510    -2.4400    -0.0060 C           0 ASB       0.680200
     11 O2           7.4830    -3.3260     0.0250 O           0 ASB      -0.636350
     12 N            5.3700    -2.8450    -0.0310 N           0 ASB      -0.547650
     13 C8           5.2010    -4.3190    -0.0260 C          0 ASB       0.129550
     14 C9           3.7330    -4.6330     0.0050 C          0 ASB      -0.124050
     15 C10          3.0610    -4.9040    -1.1760 C          0 ASB      -0.117000
     16 C11          1.6960    -5.0920    -1.1710 C          0 ASB      -0.120250
     17 C12          0.9910    -5.0060     0.0290 C          0 ASB      -0.032000
     18 C13          1.6860    -4.8620     1.2290 C          0 ASB      -0.120250
     19 C14          3.0530    -4.6750     1.2120 C          0 ASB      -0.117000
     20 C15         -0.4880    -4.9330     0.0120 C          0 ASB      -0.032000
     21 C16         -1.1810    -4.9380    -1.1970 C          0 ASB      -0.120250
     22 C17         -2.5520    -4.7710    -1.2030 C          0 ASB      -0.117000
     23 C18         -3.2380    -4.6060    -0.0120 C          0 ASB      -0.124050
     24 C19         -4.7140    -4.3550    -0.0130 C          0 ASB       0.129550
     25 N1          -4.9960    -2.8990     0.0440 N           0 ASB      -0.547650
     26 C20         -6.2920    -2.5930     0.0090 C           0 ASB       0.680200
     27 O3          -7.0250    -3.5630    -0.0210 O           0 ASB      -0.636350
     28 C21         -6.9970    -1.3250     0.0000 C          0 ASB      -0.271100
     29 C22         -8.4120    -1.4120     0.0340 C          0 ASB       0.242100
     30 O4          -9.0050    -2.6300     0.0690 O          0 ASB      -0.491850
     31 C23         -9.1930    -0.2780     0.0310 C          0 ASB      -0.159800
     32 C24        -10.6950    -0.3880     0.0640 C          0 ASB      -0.035300
     33 C25         -8.5860     0.9600    -0.0030 C          0 ASB       0.242100
     34 O5          -9.3510     2.0780    -0.0060 O          0 ASB      -0.491850
     35 C26         -7.1740     1.0800    -0.0330 C          0 ASB      -0.271100
     36 C27         -6.3910    -0.0720    -0.0330 C          0 ASB      -0.012000
     37 C28         -6.6540     2.4390    -0.0710 C           0 ASB       0.680200
     38 O6          -7.4920     3.3190    -0.0990 O           0 ASB      -0.636350
     39 N2          -5.3800     2.8570    -0.0790 N           0 ASB      -0.547650
     40 C29         -5.2000     4.3260    -0.1530 C          0 ASB       0.129550
     41 C30         -3.7310     4.6400    -0.1040 C          0 ASB      -0.124050
     42 C31         -3.0230     4.8430    -1.2770 C          0 ASB      -0.117000
     43 C32         -1.6540     5.0170    -1.2380 C          0 ASB      -0.120250
     44 C33         -0.9900     5.0020    -0.0130 C          0 ASB      -0.032000
     45 C34         -1.7240     4.9430     1.1700 C          0 ASB      -0.120250
     46 C35         -3.0910     4.7680     1.1190 C          0 ASB      -0.117000
     47 C36          0.4910     4.9290     0.0270 C          0 ASB      -0.032000
     48 C37          1.2170     4.8360    -1.1600 C          0 ASB      -0.120250
     49 C38          2.5850     4.6730    -1.1170 C          0 ASB      -0.117000
     50 C39          3.2400     4.6070     0.1020 C          0 ASB      -0.124050
     51 C40          4.7150     4.3490     0.1460 C          0 ASB       0.129550
     52 N3           4.9890     2.8940     0.0350 N           0 ASB      -0.547650
     53 C41          6.2920     2.5930     0.0430 C           0 ASB       0.680200
     54 O7           7.0240     3.5630     0.0940 O           0 ASB      -0.636350
     55 C42          2.5320     4.7760     1.2800 C          0 ASB      -0.117000
     56 C43          1.1620     4.9380     1.2480 C          0 ASB      -0.120250
     57 C44         -2.5580    -4.6770     1.1940 C          0 ASB      -0.117000
     58 C45         -1.1900    -4.8420     1.2120 C          0 ASB      -0.120250
     59 H           11.0710     0.4040     0.9790 H          0 ASB       0.055033
     60 H1          11.1180    -0.4770    -0.5670 H          0 ASB       0.055033
     61 H2          10.9890     1.2980    -0.5580 H          0 ASB       0.055033
     62 H3           9.1190     2.8800    -0.9430 H          0 ASB       0.463500
     63 H4           5.3160    -0.0100    -0.0020 H          0 ASB       0.133000
     64 H5           9.4920    -2.3140    -0.9710 H          0 ASB       0.463500
     65 H6           4.6210    -2.2280    -0.0500 H          0 ASB       0.307750
     66 H7           5.6460    -4.7420    -0.9260 H          0 ASB       0.073825
     67 H8           5.6840    -4.7390     0.8560 H          0 ASB       0.073825
     68 H9           3.6100    -4.9670    -2.1040 H          0 ASB       0.142250
     69 H10          1.1740    -5.3050    -2.0920 H          0 ASB       0.138250
     70 H11          1.1560    -4.8970     2.1700 H          0 ASB       0.138250
     71 H12          3.5940    -4.5620     2.1390 H          0 ASB       0.142250
     72 H13         -0.6480    -5.0710    -2.1260 H          0 ASB       0.138250
     73 H14         -3.0900    -4.7690    -2.1390 H          0 ASB       0.142250
     74 H15         -5.1490    -4.7690    -0.9230 H          0 ASB       0.073825
     75 H16         -5.1620    -4.8420     0.8530 H          0 ASB       0.073825
     76 H17         -4.2970    -2.2290     0.1020 H          0 ASB       0.307750
     77 H18         -9.1070    -2.8640     1.0020 H          0 ASB       0.463500
     78 H19        -11.0360    -0.3970     1.0990 H          0 ASB       0.055033
     79 H20        -11.1330     0.4640    -0.4550 H          0 ASB       0.055033
     80 H21        -11.0030    -1.3110    -0.4280 H          0 ASB       0.055033
     81 H22         -9.4900     2.3240     0.9190 H          0 ASB       0.463500
     82 H23         -5.3140     0.0060    -0.0570 H          0 ASB       0.133000
     83 H24         -4.6310     2.2420    -0.0400 H          0 ASB       0.307750
     84 H25         -5.6210     4.7000    -1.0860 H          0 ASB       0.073825
     85 H26         -5.7020     4.7980     0.6910 H          0 ASB       0.073825
     86 H27         -3.5430     4.8630    -2.2230 H          0 ASB       0.142250
     87 H28         -1.1010     5.1650    -2.1540 H          0 ASB       0.138250
     88 H29         -1.2240     5.0330     2.1240 H          0 ASB       0.138250
     89 H30         -3.6650     4.7310     2.0340 H          0 ASB       0.142250
     90 H31          0.7080     4.8920    -2.1110 H          0 ASB       0.138250
     91 H32          3.1480     4.5960    -2.0350 H          0 ASB       0.142250
     92 H33          5.1980     4.8710    -0.6800 H          0 ASB       0.073825
     93 H34          5.1180     4.7210     1.0880 H          0 ASB       0.073825
     94 H35          4.2900     2.2250    -0.0350 H          0 ASB       0.307750
     95 H36          3.0530     4.7820     2.2250 H          0 ASB       0.142250
     96 H37          0.6110     5.0720     2.1670 H          0 ASB       0.138250
     97 H38         -3.1030    -4.6030     2.1230 H          0 ASB       0.142250
     98 H39         -0.6640    -4.9000     2.1530 H          0 ASB       0.138250
@<TRIPOS>BOND
     1     1     2 1   
     2     1    59 1   
     3     1    60 1   
     4     1    61 1   
     5     2     3 ar  
     6     2     8 ar  
     7     3     4 1   
     8     3     5 ar  
     9     4    62 1   
    10     5     6 ar  
    11     5    53 1   
    12     6     7 ar  
    13     6    63 1   
    14     7     8 ar  
    15     7    10 1   
    16     8     9 1   
    17     9    64 1   
    18    10    11 2   
    19    10    12 1   
    20    12    13 1   
    21    12    65 1   
    22    13    14 1   
    23    13    66 1   
    24    13    67 1   
    25    14    15 ar  
    26    14    19 ar  
    27    15    16 ar  
    28    15    68 1   
    29    16    17 ar  
    30    16    69 1   
    31    17    18 ar  
    32    17    20 1   
    33    18    19 ar  
    34    18    70 1   
    35    19    71 1   
    36    20    21 ar  
    37    20    58 ar  
    38    21    22 ar  
    39    21    72 1   
    40    22    23 ar  
    41    22    73 1   
    42    23    24 1   
    43    23    57 ar  
    44    24    25 1   
    45    24    74 1   
    46    24    75 1   
    47    25    26 1   
    48    25    76 1   
    49    26    27 2   
    50    26    28 1   
    51    28    29 ar  
    52    28    36 ar  
    53    29    30 1   
    54    29    31 ar  
    55    30    77 1   
    56    31    32 1   
    57    31    33 ar  
    58    32    78 1   
    59    32    79 1   
    60    32    80 1   
    61    33    34 1   
    62    33    35 ar  
    63    34    81 1   
    64    35    36 ar  
    65    35    37 1   
    66    36    82 1   
    67    37    38 2   
    68    37    39 1   
    69    39    40 1   
    70    39    83 1   
    71    40    41 1   
    72    40    84 1   
    73    40    85 1   
    74    41    42 ar  
    75    41    46 ar  
    76    42    43 ar  
    77    42    86 1   
    78    43    44 ar  
    79    43    87 1   
    80    44    45 ar  
    81    44    47 1   
    82    45    46 ar  
    83    45    88 1   
    84    46    89 1   
    85    47    48 ar  
    86    47    56 ar  
    87    48    49 ar  
    88    48    90 1   
    89    49    50 ar  
    90    49    91 1   
    91    50    51 1   
    92    50    55 ar  
    93    51    52 1   
    94    51    92 1   
    95    51    93 1   
    96    52    53 1   
    97    52    94 1   
    98    53    54 2   
    99    55    56 ar  
   100    55    95 1   
   101    56    96 1   
   102    57    58 ar  
   103    57    97 1   
   104    58    98 1   
@<TRIPOS>SUBSTRUCTURE
     1 ASB         1 TEMP              0 ****  ****    0 ROOT
