@<TRIPOS>MOLECULE
151
  142   146     1     0     0
SMALL
bcc


@<TRIPOS>ATOM
      1 S           -9.0140     0.3390    -1.5860 S          0 151      -0.285200
      2 C          -10.4060     0.3290    -0.5050 C          0 151       0.034400
      3 C1         -10.9530     1.5300    -0.0640 C          0 151      -0.087300
      4 C2         -10.3750     2.8490    -0.5090 C          0 151       0.162450
      5 O           -9.2120     3.1740     0.2560 O          0 151      -0.420100
      6 C3          -8.9530     4.5680     0.0680 C          0 151       0.126900
      7 C4          -7.5480     4.9010     0.5740 C          0 151       0.101650
      8 O1          -6.9960     5.9580    -0.2090 O          0 151      -0.433600
      9 C5          -5.9850     6.6020     0.5710 C          0 151       0.127650
     10 C6          -5.1490     7.5080    -0.3360 C          0 151       0.127900
     11 O2          -4.1090     8.1330     0.4220 O          0 151      -0.430100
     12 C7          -3.1860     8.6830    -0.5250 C          0 151       0.112900
     13 C8          -2.1010     9.4740     0.2050 C          0 151       0.125150
     14 O3          -0.9590     9.6120    -0.6370 O          0 151      -0.334150
     15 C9          -0.3040    10.7390    -0.2610 C          0 151       0.085100
     16 C10          0.9510    10.6450     0.3300 C          0 151       0.085100
     17 O4           1.5070     9.4190     0.5280 O          0 151      -0.334150
     18 C11          2.6720     9.3330    -0.2930 C          0 151       0.125150
     19 C12          3.7640     8.5550     0.4450 C          0 151       0.112900
     20 O5           4.6190     7.9040    -0.4940 O          0 151      -0.430100
     21 C13          5.5990     7.1920     0.2610 C          0 151       0.127900
     22 C14          6.3730     6.2390    -0.6550 C          0 151       0.127650
     23 O6           7.3710     5.5560     0.1070 O          0 151      -0.433600
     24 C15          7.8200     4.4400    -0.6670 C          0 151       0.101650
     25 C16          9.2270     4.0350    -0.2100 C          0 151       0.126900
     26 O7           9.3780     2.6170    -0.3310 O          0 151      -0.420100
     27 C17         10.5080     2.2380     0.4520 C          0 151       0.162450
     28 C18         11.0150     0.8810     0.0310 C          0 151      -0.087300
     29 C19         12.1110     0.7950    -0.8070 C          0 151      -0.093500
     30 C20         12.5860    -0.4440    -1.1970 C          0 151      -0.141000
     31 C21         11.9690    -1.5940    -0.7470 C          0 151      -0.093500
     32 C22         10.8750    -1.5170     0.0910 C          0 151      -0.087300
     33 C23         10.2190    -2.7870     0.5810 C          0 151       0.162450
     34 O8           9.1280    -3.1460    -0.2700 O          0 151      -0.420100
     35 C24          8.9180    -4.5540    -0.1280 C          0 151       0.126900
     36 C25          7.5210    -4.9130    -0.6360 C          0 151       0.101650
     37 O9           6.9640    -5.9430     0.1800 O          0 151      -0.433600
     38 C26          5.9700    -6.6200    -0.5920 C          0 151       0.127650
     39 C27          5.1200    -7.4930     0.3340 C          0 151       0.127900
     40 O10          4.1000    -8.1530    -0.4230 O          0 151      -0.430100
     41 C28          3.2160    -8.7630     0.5220 C          0 151       0.112900
     42 C29          2.0950    -9.4970    -0.2130 C          0 151       0.125150
     43 O11          0.9560    -9.6070     0.6370 O          0 151      -0.334150
     44 C30          0.3050   -10.7500     0.3060 C          0 151       0.085100
     45 C31         -0.9540   -10.6840    -0.2800 C          0 151       0.085100
     46 O12         -1.5160    -9.4680    -0.5160 O          0 151      -0.334150
     47 C32         -2.6690    -9.3560     0.3170 C          0 151       0.125150
     48 C33         -3.7770    -8.6150    -0.4340 C          0 151       0.112900
     49 O13         -4.6020    -7.9070     0.4900 O          0 151      -0.430100
     50 C34         -5.5560    -7.1770    -0.2810 C          0 151       0.127900
     51 C35         -6.3650    -6.2500     0.6310 C          0 151       0.127650
     52 O14         -7.3080    -5.5170    -0.1540 O          0 151      -0.433600
     53 C36         -7.8110    -4.4540     0.6590 C          0 151       0.101650
     54 C37         -9.1830    -4.0140     0.1330 C          0 151       0.126900
     55 O15         -9.3130    -2.5950     0.2640 O          0 151      -0.420100
     56 C38        -10.3890    -2.1840    -0.5770 C          0 151       0.162450
     57 C39        -10.9620    -0.8770    -0.0960 C          0 151      -0.087300
     58 C40        -12.0480    -0.8800     0.7550 C          0 151      -0.093500
     59 C41        -12.5880     0.3120     1.2020 C          0 151      -0.141000
     60 C42        -12.0420     1.5150     0.7910 C          0 151      -0.093500
     61 C43         -1.6250   -11.8470    -0.6170 C          0 151      -0.149750
     62 C44         -1.0390   -13.0730    -0.3680 C          0 151      -0.128750
     63 C45          0.2150   -13.1440     0.2100 C          0 151      -0.128750
     64 C46          0.8910   -11.9850     0.5500 C          0 151      -0.149750
     65 C47         10.3890    -0.2770     0.4790 C          0 151       0.034400
     66 S1           8.9800    -0.1690     1.5320 S          0 151      -0.285200
     67 C48          1.6260    11.7920     0.7130 C          0 151      -0.149750
     68 C49          1.0480    13.0290     0.5050 C          0 151      -0.128750
     69 C50         -0.2030    13.1280    -0.0760 C          0 151      -0.128750
     70 C51         -0.8820    11.9840    -0.4610 C          0 151      -0.149750
     71 H           -8.0170     0.3270    -0.6830 H          0 151       0.216800
     72 H1         -10.1100     2.7940    -1.5640 H          0 151       0.050325
     73 H2         -11.1230     3.6320    -0.3730 H          0 151       0.050325
     74 H3          -9.0230     4.8100    -0.9930 H          0 151       0.058700
     75 H4          -9.6870     5.1520     0.6230 H          0 151       0.058700
     76 H5          -7.6030     5.2110     1.6180 H          0 151       0.042450
     77 H6          -6.9130     4.0180     0.4910 H          0 151       0.042450
     78 H7          -6.4540     7.2010     1.3520 H          0 151       0.042575
     79 H8          -5.3410     5.8490     1.0260 H          0 151       0.042575
     80 H9          -4.7050     6.9120    -1.1330 H          0 151       0.041950
     81 H10         -5.7910     8.2740    -0.7720 H          0 151       0.041950
     82 H11         -2.7260     7.8750    -1.0920 H          0 151       0.044700
     83 H12         -3.7210     9.3460    -1.2050 H          0 151       0.044700
     84 H13         -2.4830    10.4590     0.4660 H          0 151       0.067575
     85 H14         -1.8160     8.9460     1.1150 H          0 151       0.067575
     86 H15          2.4250     8.8150    -1.2200 H          0 151       0.067575
     87 H16          3.0330    10.3340    -0.5240 H          0 151       0.067575
     88 H17          4.3520     9.2440     1.0510 H          0 151       0.044700
     89 H18          3.3000     7.8080     1.0880 H          0 151       0.044700
     90 H19          6.2920     7.9000     0.7150 H          0 151       0.041950
     91 H20          5.1040     6.6180     1.0440 H          0 151       0.041950
     92 H21          5.6850     5.5110    -1.0870 H          0 151       0.042575
     93 H22          6.8500     6.8080    -1.4530 H          0 151       0.042575
     94 H23          7.1370     3.6030    -0.5280 H          0 151       0.042450
     95 H24          7.8460     4.7160    -1.7210 H          0 151       0.042450
     96 H25          9.9690     4.5330    -0.8340 H          0 151       0.058700
     97 H26          9.3710     4.3280     0.8290 H          0 151       0.058700
     98 H27         11.3030     2.9740     0.3140 H          0 151       0.050325
     99 H28         10.2290     2.2120     1.5050 H          0 151       0.050325
    100 H29         12.5970     1.6940    -1.1570 H          0 151       0.148000
    101 H30         13.4420    -0.5110    -1.8520 H          0 151       0.134500
    102 H31         12.3430    -2.5600    -1.0530 H          0 151       0.148000
    103 H32         10.9550    -3.5930     0.5780 H          0 151       0.050325
    104 H33          9.8550    -2.6440     1.5970 H          0 151       0.050325
    105 H34          9.6660    -5.0930    -0.7100 H          0 151       0.058700
    106 H35          9.0060    -4.8310     0.9220 H          0 151       0.058700
    107 H36          6.8810    -4.0310    -0.5940 H          0 151       0.042450
    108 H37          7.5880    -5.2630    -1.6660 H          0 151       0.042450
    109 H38          5.3340    -5.8870    -1.0880 H          0 151       0.042575
    110 H39          6.4550    -7.2480    -1.3400 H          0 151       0.042575
    111 H40          5.7540    -8.2380     0.8140 H          0 151       0.041950
    112 H41          4.6550    -6.8680     1.0970 H          0 151       0.041950
    113 H42          3.7740    -9.4740     1.1320 H          0 151       0.044700
    114 H43          2.7850    -7.9930     1.1610 H          0 151       0.044700
    115 H44          1.8230    -8.9390    -1.1090 H          0 151       0.067575
    116 H45          2.4370   -10.4910    -0.4960 H          0 151       0.067575
    117 H46         -3.0200   -10.3490     0.5950 H          0 151       0.067575
    118 H47         -2.4110    -8.8010     1.2210 H          0 151       0.067575
    119 H48         -3.3280    -7.9090    -1.1330 H          0 151       0.044700
    120 H49         -4.3840    -9.3330    -0.9850 H          0 151       0.044700
    121 H50         -5.0340    -6.5810    -1.0300 H          0 151       0.041950
    122 H51         -6.2300    -7.8740    -0.7790 H          0 151       0.041950
    123 H52         -6.8960    -6.8450     1.3750 H          0 151       0.042575
    124 H53         -5.6920    -5.5550     1.1340 H          0 151       0.042575
    125 H54         -7.9100    -4.7990     1.6880 H          0 151       0.042450
    126 H55         -7.1210    -3.6110     0.6230 H          0 151       0.042450
    127 H56         -9.2780    -4.2920    -0.9160 H          0 151       0.058700
    128 H57         -9.9670    -4.5050     0.7100 H          0 151       0.058700
    129 H58        -10.0310    -2.0760    -1.6000 H          0 151       0.050325
    130 H59        -11.1720    -2.9450    -0.5550 H          0 151       0.050325
    131 H60        -12.4790    -1.8190     1.0720 H          0 151       0.148000
    132 H61        -13.4390     0.3020     1.8670 H          0 151       0.134500
    133 H62        -12.4630     2.4460     1.1410 H          0 151       0.148000
    134 H63         -2.6000   -11.7970    -1.0760 H          0 151       0.149250
    135 H64         -1.5660   -13.9820    -0.6190 H          0 151       0.134500
    136 H65          0.6680   -14.1060     0.3940 H          0 151       0.134500
    137 H66          1.8710   -12.0390     1.0000 H          0 151       0.149250
    138 H67          9.5840    -0.1770     2.7330 H          0 151       0.216800
    139 H68          2.5980    11.7200     1.1750 H          0 151       0.149250
    140 H69          1.5790    13.9260     0.7900 H          0 151       0.134500
    141 H70         -0.6510    14.0970    -0.2270 H          0 151       0.134500
    142 H71         -1.8600    12.0600    -0.9130 H          0 151       0.149250
@<TRIPOS>BOND
     1     1     2 1   
     2     1    71 1   
     3     2     3 ar  
     4     2    57 ar  
     5     3     4 1   
     6     3    60 ar  
     7     4     5 1   
     8     4    72 1   
     9     4    73 1   
    10     5     6 1   
    11     6     7 1   
    12     6    74 1   
    13     6    75 1   
    14     7     8 1   
    15     7    76 1   
    16     7    77 1   
    17     8     9 1   
    18     9    10 1   
    19     9    78 1   
    20     9    79 1   
    21    10    11 1   
    22    10    80 1   
    23    10    81 1   
    24    11    12 1   
    25    12    13 1   
    26    12    82 1   
    27    12    83 1   
    28    13    14 1   
    29    13    84 1   
    30    13    85 1   
    31    14    15 1   
    32    15    16 ar  
    33    15    70 ar  
    34    16    17 1   
    35    16    67 ar  
    36    17    18 1   
    37    18    19 1   
    38    18    86 1   
    39    18    87 1   
    40    19    20 1   
    41    19    88 1   
    42    19    89 1   
    43    20    21 1   
    44    21    22 1   
    45    21    90 1   
    46    21    91 1   
    47    22    23 1   
    48    22    92 1   
    49    22    93 1   
    50    23    24 1   
    51    24    25 1   
    52    24    94 1   
    53    24    95 1   
    54    25    26 1   
    55    25    96 1   
    56    25    97 1   
    57    26    27 1   
    58    27    28 1   
    59    27    98 1   
    60    27    99 1   
    61    28    29 ar  
    62    28    65 ar  
    63    29    30 ar  
    64    29   100 1   
    65    30    31 ar  
    66    30   101 1   
    67    31    32 ar  
    68    31   102 1   
    69    32    33 1   
    70    32    65 ar  
    71    33    34 1   
    72    33   103 1   
    73    33   104 1   
    74    34    35 1   
    75    35    36 1   
    76    35   105 1   
    77    35   106 1   
    78    36    37 1   
    79    36   107 1   
    80    36   108 1   
    81    37    38 1   
    82    38    39 1   
    83    38   109 1   
    84    38   110 1   
    85    39    40 1   
    86    39   111 1   
    87    39   112 1   
    88    40    41 1   
    89    41    42 1   
    90    41   113 1   
    91    41   114 1   
    92    42    43 1   
    93    42   115 1   
    94    42   116 1   
    95    43    44 1   
    96    44    45 ar  
    97    44    64 ar  
    98    45    46 1   
    99    45    61 ar  
   100    46    47 1   
   101    47    48 1   
   102    47   117 1   
   103    47   118 1   
   104    48    49 1   
   105    48   119 1   
   106    48   120 1   
   107    49    50 1   
   108    50    51 1   
   109    50   121 1   
   110    50   122 1   
   111    51    52 1   
   112    51   123 1   
   113    51   124 1   
   114    52    53 1   
   115    53    54 1   
   116    53   125 1   
   117    53   126 1   
   118    54    55 1   
   119    54   127 1   
   120    54   128 1   
   121    55    56 1   
   122    56    57 1   
   123    56   129 1   
   124    56   130 1   
   125    57    58 ar  
   126    58    59 ar  
   127    58   131 1   
   128    59    60 ar  
   129    59   132 1   
   130    60   133 1   
   131    61    62 ar  
   132    61   134 1   
   133    62    63 ar  
   134    62   135 1   
   135    63    64 ar  
   136    63   136 1   
   137    64   137 1   
   138    65    66 1   
   139    66   138 1   
   140    67    68 ar  
   141    67   139 1   
   142    68    69 ar  
   143    68   140 1   
   144    69    70 ar  
   145    69   141 1   
   146    70   142 1   
@<TRIPOS>SUBSTRUCTURE
     1 151         1 TEMP              0 ****  ****    0 ROOT
