@<TRIPOS>MOLECULE
95
   52    54     1     0     0
SMALL
bcc


@<TRIPOS>ATOM
      1 O           -3.8440    -3.5210     0.0880 O           0 95       -0.602100
      2 C           -3.3030    -2.4330     0.0920 C           0 95        0.569600
      3 N           -1.9450    -2.3270     0.1550 N           0 95       -0.549900
      4 C1          -1.1870    -3.5930     0.2250 C          0 95        0.083500
      5 C2           0.0350    -3.4890    -0.6890 C          0 95       -0.129400
      6 C3           1.3100    -3.6300     0.1440 C          0 95        0.083500
      7 N1           2.0290    -2.3410     0.1360 N           0 95       -0.549900
      8 C4           3.3880    -2.4010     0.0370 C           0 95        0.569600
      9 O1           3.9630    -3.4690    -0.0240 O           0 95       -0.602100
     10 C5           4.1430    -1.1240     0.0040 C          0 95        0.352800
     11 C6           5.5360    -1.1360    -0.0770 C          0 95       -0.171800
     12 C7           6.2210     0.0680    -0.1060 C          0 95       -0.109000
     13 C8           5.4940     1.2470    -0.0550 C          0 95       -0.171800
     14 C9           4.1030     1.1850     0.0220 C          0 95        0.352800
     15 N2           3.4780     0.0190     0.0490 N          0 95       -0.653000
     16 C10          3.3040     2.4340     0.0770 C           0 95        0.569600
     17 O2           3.8470     3.5210     0.0790 O           0 95       -0.602100
     18 N3           1.9450     2.3310     0.1250 N           0 95       -0.549900
     19 C11          1.1910     3.5980     0.1980 C          0 95        0.083500
     20 C12         -0.0510     3.4870    -0.6880 C          0 95       -0.129400
     21 C13         -1.3080     3.6260     0.1730 C          0 95        0.083500
     22 N4          -2.0300     2.3390     0.1710 N           0 95       -0.549900
     23 C14         -3.3870     2.4000     0.0480 C           0 95        0.569600
     24 O3          -3.9610     3.4690    -0.0260 O           0 95       -0.602100
     25 C15         -4.1430     1.1240     0.0080 C          0 95        0.352800
     26 N5          -3.4780    -0.0190     0.0640 N          0 95       -0.653000
     27 C16         -4.1020    -1.1860     0.0240 C          0 95        0.352800
     28 C17         -5.4920    -1.2480    -0.0770 C          0 95       -0.171800
     29 C18         -6.2190    -0.0690    -0.1390 C          0 95       -0.109000
     30 C19         -5.5350     1.1360    -0.0870 C          0 95       -0.171800
     31 H           -1.5000    -1.4650     0.1540 H          0 95        0.322500
     32 H1          -0.8620    -3.7670     1.2510 H          0 95        0.064450
     33 H2          -1.8210    -4.4160    -0.1040 H          0 95        0.064450
     34 H3          -0.0010    -4.2840    -1.4350 H          0 95        0.062200
     35 H4           0.0330    -2.5210    -1.1900 H          0 95        0.062200
     36 H5           1.0500    -3.8970     1.1680 H          0 95        0.064450
     37 H6           1.9450    -4.4040    -0.2870 H          0 95        0.064450
     38 H7           1.5590    -1.4950     0.1980 H          0 95        0.322500
     39 H8           6.0730    -2.0730    -0.1150 H          0 95        0.173500
     40 H9           7.3000     0.0870    -0.1670 H          0 95        0.153000
     41 H10          5.9990     2.2020    -0.0750 H          0 95        0.173500
     42 H11          1.4980     1.4700     0.1120 H          0 95        0.322500
     43 H12          0.8880     3.7830     1.2290 H          0 95        0.064450
     44 H13          1.8180     4.4170    -0.1530 H          0 95        0.064450
     45 H14         -0.0340     4.2790    -1.4370 H          0 95        0.062200
     46 H15         -0.0570     2.5170    -1.1850 H          0 95        0.062200
     47 H16         -1.0260     3.8850     1.1930 H          0 95        0.064450
     48 H17         -1.9490     4.4050    -0.2400 H          0 95        0.064450
     49 H18         -1.5640     1.4920     0.2520 H          0 95        0.322500
     50 H19         -5.9960    -2.2030    -0.1080 H          0 95        0.173500
     51 H20         -7.2950    -0.0880    -0.2190 H          0 95        0.153000
     52 H21         -6.0720     2.0720    -0.1320 H          0 95        0.173500
@<TRIPOS>BOND
     1     1     2 2   
     2     2     3 1   
     3     2    27 1   
     4     3     4 1   
     5     3    31 1   
     6     4     5 1   
     7     4    32 1   
     8     4    33 1   
     9     5     6 1   
    10     5    34 1   
    11     5    35 1   
    12     6     7 1   
    13     6    36 1   
    14     6    37 1   
    15     7     8 1   
    16     7    38 1   
    17     8     9 2   
    18     8    10 1   
    19    10    11 ar  
    20    10    15 ar  
    21    11    12 ar  
    22    11    39 1   
    23    12    13 ar  
    24    12    40 1   
    25    13    14 ar  
    26    13    41 1   
    27    14    15 ar  
    28    14    16 1   
    29    16    17 2   
    30    16    18 1   
    31    18    19 1   
    32    18    42 1   
    33    19    20 1   
    34    19    43 1   
    35    19    44 1   
    36    20    21 1   
    37    20    45 1   
    38    20    46 1   
    39    21    22 1   
    40    21    47 1   
    41    21    48 1   
    42    22    23 1   
    43    22    49 1   
    44    23    24 2   
    45    23    25 1   
    46    25    26 ar  
    47    25    30 ar  
    48    26    27 ar  
    49    27    28 ar  
    50    28    29 ar  
    51    28    50 1   
    52    29    30 ar  
    53    29    51 1   
    54    30    52 1   
@<TRIPOS>SUBSTRUCTURE
     1 95          1 TEMP              0 ****  ****    0 ROOT
