@<TRIPOS>MOLECULE
192
   89    90     1     0     0
SMALL
bcc


@<TRIPOS>ATOM
      1 H           -2.9990     0.9700     3.4330 H          0 192       0.358633
      2 N           -2.9530     1.7820     2.9120 N          0 192      -0.820700
      3 C           -1.6450     2.4080     2.8070 C          0 192       0.128300
      4 H1          -1.0770     1.9470     1.9930 H          0 192       0.037867
      5 H2          -1.7560     3.4750     2.5900 H          0 192       0.037867
      6 C1          -0.8640     2.2450     4.1130 C          0 192       0.125400
      7 H3          -1.5300     2.4270     4.9580 H          0 192       0.054033
      8 H4          -0.4740     1.2280     4.1780 H          0 192       0.054033
      9 O            0.2120     3.1800     4.1440 O          0 192      -0.418267
     10 C2           1.4210     2.4230     4.2480 C          0 192       0.125400
     11 H5           2.2710     3.1010     4.3170 H          0 192       0.054033
     12 H6           1.3790     1.8000     5.1410 H          0 192       0.054033
     13 C3           1.5720     1.5340     3.0120 C          0 192       0.128300
     14 H7           1.1980     0.5340     3.2450 H          0 192       0.037867
     15 H8           0.9690     1.9480     2.1990 H          0 192       0.037867
     16 N1           2.9650     1.4560     2.6000 N          0 192      -0.820700
     17 H9           3.6160     1.3080     3.2950 H          0 192       0.358633
     18 C4           3.0710     0.5970     1.4220 C          0 192       0.140300
     19 H10          2.3780    -0.2440     1.5520 H          0 192       0.041533
     20 H11          2.7610     1.1650     0.5450 H          0 192       0.041533
     21 C5           4.4900     0.0760     1.2730 C          0 192       0.160967
     22 H12          5.2090     0.8760     1.4620 H          0 192       0.048617
     23 H13          4.6710    -0.7450     1.9670 H          0 192       0.048617
     24 N2           4.7340    -0.4370    -0.1380 N          0 192      -0.742600
     25 C6           3.4670    -1.2390    -0.3420 C          0 192       0.160967
     26 H14          2.5840    -0.6800    -0.1110 H          0 192       0.048617
     27 H15          3.4520    -1.5880    -1.3790 H          0 192       0.048617
     28 C7           3.5640    -2.4720     0.5670 C          0 192       0.140300
     29 H16          4.6200    -2.6880     0.7570 H          0 192       0.041533
     30 H17          3.0740    -2.2530     1.5180 H          0 192       0.041533
     31 N3           2.9300    -3.6140    -0.0720 N          0 192      -0.820700
     32 H18          3.4760    -4.4110    -0.1540 H          0 192       0.358633
     33 C8           1.5860    -3.8140     0.4420 C          0 192       0.128300
     34 H19          1.6260    -4.2790     1.4310 H          0 192       0.037867
     35 H20          1.0700    -2.8540     0.5280 H          0 192       0.037867
     36 C9           0.7910    -4.7230    -0.5000 C          0 192       0.125400
     37 H21          0.3750    -4.1260    -1.3120 H          0 192       0.054033
     38 H22          1.4490    -5.4870    -0.9120 H          0 192       0.054033
     39 O1          -0.2700    -5.3500     0.2230 O          0 192      -0.418267
     40 C10         -1.4880    -4.9910    -0.4350 C          0 192       0.125400
     41 H23         -1.3630    -5.0940    -1.5120 H          0 192       0.054033
     42 H24         -2.2920    -5.6430    -0.0970 H          0 192       0.054033
     43 C11         -1.8340    -3.5380    -0.0980 C          0 192       0.128300
     44 H25         -1.5090    -3.3230     0.9230 H          0 192       0.037867
     45 H26         -1.2950    -2.8750    -0.7800 H          0 192       0.037867
     46 N4          -3.2680    -3.3220    -0.2220 N          0 192      -0.820700
     47 H27         -3.8370    -4.0800    -0.0510 H          0 192       0.358633
     48 C12         -3.6390    -2.0770     0.4450 C          0 192       0.140300
     49 H28         -4.2770    -2.2980     1.3040 H          0 192       0.041533
     50 H29         -2.7240    -1.5960     0.8000 H          0 192       0.041533
     51 C13         -4.3840    -1.1730    -0.5260 C          0 192       0.160967
     52 H30         -3.8160    -0.9880    -1.4240 H          0 192       0.048617
     53 H31         -5.3300    -1.6590    -0.8090 H          0 192       0.048617
     54 N5          -4.7490     0.1310     0.1560 N          0 192      -0.742600
     55 C14         -3.5460     0.3160     1.0540 C          0 192       0.160967
     56 H32         -3.6510    -0.3780     1.8960 H          0 192       0.048617
     57 H33         -2.6230     0.1300     0.5380 H          0 192       0.048617
     58 C15         -3.5940     1.7440     1.6040 C          0 192       0.140300
     59 H34         -4.6350     2.0630     1.6860 H          0 192       0.041533
     60 H35         -3.0710     2.4140     0.9190 H          0 192       0.041533
     61 C16         -4.3810     1.0790    -0.9700 C          0 192       0.160967
     62 H36         -4.9790     0.8080    -1.8430 H          0 192       0.048617
     63 H37         -4.6490     2.0910    -0.6560 H          0 192       0.048617
     64 C17         -2.9020     1.0040    -1.3000 C          0 192       0.140300
     65 H38         -2.3430     1.6780    -0.6370 H          0 192       0.041533
     66 H39         -2.5070    -0.0030    -1.1650 H          0 192       0.041533
     67 N6          -2.6720     1.4180    -2.6800 N          0 192      -0.820700
     68 H40         -3.4340     1.7840    -3.1460 H          0 192       0.358633
     69 C18         -1.4320     2.1740    -2.7710 C          0 192       0.128300
     70 H41         -1.6170     3.2270    -2.5480 H          0 192       0.037867
     71 H42         -0.7100     1.7850    -2.0480 H          0 192       0.037867
     72 C19         -0.8410     2.0580    -4.1810 C          0 192       0.125400
     73 H43         -0.3150     1.1100    -4.2810 H          0 192       0.054033
     74 H44         -1.6480     2.1030    -4.9130 H          0 192       0.054033
     75 O2           0.0620     3.1430    -4.4050 O          0 192      -0.418267
     76 C20          1.3920     2.6330    -4.2880 C          0 192       0.125400
     77 H45          1.5630     1.8780    -5.0520 H          0 192       0.054033
     78 H46          2.1030     3.4500    -4.4200 H          0 192       0.054033
     79 C21          1.5860     2.0140    -2.9030 C          0 192       0.128300
     80 H47          1.1250     2.6590    -2.1520 H          0 192       0.037867
     81 H48          1.0930     1.0380    -2.8750 H          0 192       0.037867
     82 N7           3.0030     1.8500    -2.6130 N          0 192      -0.820700
     83 H49          3.4850     2.6400    -2.3400 H          0 192       0.358633
     84 C22          3.1900     0.6640    -1.7780 C          0 192       0.140300
     85 H50          2.2870     0.5370    -1.1780 H          0 192       0.041533
     86 H51          3.3190    -0.2050    -2.4290 H          0 192       0.041533
     87 C23          4.4060     0.8400    -0.8840 C          0 192       0.160967
     88 H52          4.2670     1.6480    -0.1740 H          0 192       0.048617
     89 H53          5.2810     1.0820    -1.5060 H          0 192       0.048617
@<TRIPOS>BOND
     1     1     2 1   
     2     2     3 1   
     3     2    58 1   
     4     3     4 1   
     5     3     5 1   
     6     3     6 1   
     7     6     7 1   
     8     6     8 1   
     9     6     9 1   
    10     9    10 1   
    11    10    11 1   
    12    10    12 1   
    13    10    13 1   
    14    13    14 1   
    15    13    15 1   
    16    13    16 1   
    17    16    17 1   
    18    16    18 1   
    19    18    19 1   
    20    18    20 1   
    21    18    21 1   
    22    21    22 1   
    23    21    23 1   
    24    21    24 1   
    25    24    25 1   
    26    24    87 1   
    27    25    26 1   
    28    25    27 1   
    29    25    28 1   
    30    28    29 1   
    31    28    30 1   
    32    28    31 1   
    33    31    32 1   
    34    31    33 1   
    35    33    34 1   
    36    33    35 1   
    37    33    36 1   
    38    36    37 1   
    39    36    38 1   
    40    36    39 1   
    41    39    40 1   
    42    40    41 1   
    43    40    42 1   
    44    40    43 1   
    45    43    44 1   
    46    43    45 1   
    47    43    46 1   
    48    46    47 1   
    49    46    48 1   
    50    48    49 1   
    51    48    50 1   
    52    48    51 1   
    53    51    52 1   
    54    51    53 1   
    55    51    54 1   
    56    54    55 1   
    57    54    61 1   
    58    55    56 1   
    59    55    57 1   
    60    55    58 1   
    61    58    59 1   
    62    58    60 1   
    63    61    62 1   
    64    61    63 1   
    65    61    64 1   
    66    64    65 1   
    67    64    66 1   
    68    64    67 1   
    69    67    68 1   
    70    67    69 1   
    71    69    70 1   
    72    69    71 1   
    73    69    72 1   
    74    72    73 1   
    75    72    74 1   
    76    72    75 1   
    77    75    76 1   
    78    76    77 1   
    79    76    78 1   
    80    76    79 1   
    81    79    80 1   
    82    79    81 1   
    83    79    82 1   
    84    82    83 1   
    85    82    84 1   
    86    84    85 1   
    87    84    86 1   
    88    84    87 1   
    89    87    88 1   
    90    87    89 1   
@<TRIPOS>SUBSTRUCTURE
     1 192         1 TEMP              0 ****  ****    0 ROOT
