@<TRIPOS>MOLECULE
76
   83    86     1     0     0
SMALL
bcc


@<TRIPOS>ATOM
      1 C            7.5910    -0.3920    -0.0540 C          0 76       -0.085400
      2 C1           6.3560    -1.2650     0.1750 C          0 76        0.163800
      3 N            6.6260    -2.6330    -0.2800 N          0 76       -0.827700
      4 C2           5.7940    -3.5280     0.5350 C          0 76        0.166300
      5 C3           4.7360    -4.1910    -0.3500 C          0 76       -0.106400
      6 C4           3.5220    -4.5770     0.5000 C          0 76        0.161300
      7 N1           2.4950    -5.1830    -0.3600 N          0 76       -0.822200
      8 C5           1.2350    -5.1170     0.3860 C          0 76        0.169800
      9 C6           0.3410    -4.0360    -0.2180 C          0 76       -0.140400
     10 C7          -1.0830    -4.5750    -0.3710 C          0 76        0.160800
     11 N2          -2.0040    -3.4500    -0.6040 N          0 76       -0.818200
     12 C8          -2.8470    -3.3460     0.5920 C          0 76        0.117500
     13 C9          -4.0610    -2.5040     0.3140 C          0 76        0.394100
     14 N3          -3.9460    -1.1980     0.2610 N          0 76       -0.633500
     15 C10         -5.0110    -0.4180     0.0730 C          0 76        0.366300
     16 C11         -6.3020    -0.9890    -0.0360 C          0 76       -0.145800
     17 C12         -6.4160    -2.3900    -0.0810 C          0 76       -0.086500
     18 C13         -5.2860    -3.1370     0.1080 C          0 76       -0.232300
     19 C14         -7.4390    -0.1550    -0.0620 C          0 76       -0.109500
     20 C15         -7.3270     1.1890    -0.0210 C          0 76       -0.109500
     21 C16         -6.0600     1.8140     0.0030 C          0 76       -0.145800
     22 C17         -4.8840     1.0320    -0.0340 C          0 76        0.366300
     23 N4          -3.6940     1.6140    -0.1990 N          0 76       -0.633500
     24 C18         -3.5790     2.9210    -0.2340 C          0 76        0.394100
     25 C19         -2.2410     3.5550    -0.4920 C          0 76        0.117500
     26 N5          -1.2170     3.0200     0.4150 N          0 76       -0.818200
     27 C20          0.0740     3.1840    -0.2740 C          0 76        0.160800
     28 C21          0.9610     4.1350     0.5390 C          0 76       -0.140400
     29 C22          2.1700     4.5450    -0.3100 C          0 76        0.169800
     30 N6           3.3430     4.7370     0.5580 N          0 76       -0.822200
     31 C23          4.5280     4.5960    -0.2940 C          0 76        0.161300
     32 C24          5.6920     4.0690     0.5440 C          0 76       -0.106400
     33 C25          6.5820     3.1780    -0.3250 C          0 76        0.166300
     34 N7           6.7910     1.8870     0.3420 N          0 76       -0.827700
     35 C26          7.1740     0.9250    -0.7040 C          0 76        0.163800
     36 C27         -4.6860     3.7530    -0.0620 C          0 76       -0.232300
     37 C28         -5.9320     3.2130     0.0690 C          0 76       -0.086500
     38 H            8.0740    -0.1880     0.9020 H          0 76        0.048200
     39 H1           8.2890    -0.9150    -0.7080 H          0 76        0.048200
     40 H2           6.1130    -1.2780     1.2380 H          0 76        0.033450
     41 H3           5.5140    -0.8570    -0.3840 H          0 76        0.033450
     42 H4           6.2810    -2.6970    -1.2260 H          0 76        0.358800
     43 H5           6.4220    -4.2960     0.9870 H          0 76        0.039700
     44 H6           5.3030    -2.9530     1.3200 H          0 76        0.039700
     45 H7           4.4260    -3.4950    -1.1300 H          0 76        0.046950
     46 H8           5.1560    -5.0860    -0.8100 H          0 76        0.046950
     47 H9           3.8260    -5.2930     1.2640 H          0 76        0.035700
     48 H10          3.1160    -3.6850     0.9790 H          0 76        0.035700
     49 H11          2.3910    -4.5760    -1.1590 H          0 76        0.355800
     50 H12          0.7280    -6.0810     0.3290 H          0 76        0.037450
     51 H13          1.4420    -4.8770     1.4290 H          0 76        0.037450
     52 H14          0.3300    -3.1650     0.4390 H          0 76        0.051200
     53 H15          0.7280    -3.7480    -1.1950 H          0 76        0.051200
     54 H16         -1.1230    -5.2600    -1.2180 H          0 76        0.050450
     55 H17         -1.3730    -5.1020     0.5380 H          0 76        0.050450
     56 H18         -1.4400    -2.6150    -0.6350 H          0 76        0.382300
     57 H19         -3.1630    -4.3430     0.8970 H          0 76        0.053450
     58 H20         -2.2710    -2.8910     1.3980 H          0 76        0.053450
     59 H21         -7.3700    -2.8640    -0.2600 H          0 76        0.140500
     60 H22         -5.3420    -4.2150     0.0980 H          0 76        0.146500
     61 H23         -8.4200    -0.6020    -0.1170 H          0 76        0.137000
     62 H24         -8.2190     1.7960    -0.0070 H          0 76        0.137000
     63 H25         -1.9440     3.3570    -1.5230 H          0 76        0.053450
     64 H26         -2.3210     4.6320    -0.3460 H          0 76        0.053450
     65 H27         -1.1960     3.6290     1.2190 H          0 76        0.382300
     66 H28          0.5650     2.2150    -0.3630 H          0 76        0.050450
     67 H29         -0.0930     3.6010    -1.2670 H          0 76        0.050450
     68 H30          0.3900     5.0230     0.8110 H          0 76        0.051200
     69 H31          1.3050     3.6310     1.4420 H          0 76        0.051200
     70 H32          2.3830     3.7640    -1.0390 H          0 76        0.037450
     71 H33          1.9480     5.4760    -0.8310 H          0 76        0.037450
     72 H34          3.3210     5.6980     0.8660 H          0 76        0.355800
     73 H35          4.3140     3.8950    -1.1010 H          0 76        0.035700
     74 H36          4.7920     5.5660    -0.7140 H          0 76        0.035700
     75 H37          6.2760     4.9080     0.9230 H          0 76        0.046950
     76 H38          5.3040     3.4890     1.3820 H          0 76        0.046950
     77 H39          6.1010     3.0140    -1.2890 H          0 76        0.039700
     78 H40          7.5440     3.6660    -0.4790 H          0 76        0.039700
     79 H41          7.5940     1.9980     0.9430 H          0 76        0.358800
     80 H42          8.0080     1.3270    -1.2790 H          0 76        0.033450
     81 H43          6.3260     0.7520    -1.3660 H          0 76        0.033450
     82 H44         -4.5570     4.8250    -0.0330 H          0 76        0.146500
     83 H45         -6.7970     3.8430     0.2200 H          0 76        0.140500
@<TRIPOS>BOND
     1     1     2 1   
     2     1    35 1   
     3     1    38 1   
     4     1    39 1   
     5     2     3 1   
     6     2    40 1   
     7     2    41 1   
     8     3     4 1   
     9     3    42 1   
    10     4     5 1   
    11     4    43 1   
    12     4    44 1   
    13     5     6 1   
    14     5    45 1   
    15     5    46 1   
    16     6     7 1   
    17     6    47 1   
    18     6    48 1   
    19     7     8 1   
    20     7    49 1   
    21     8     9 1   
    22     8    50 1   
    23     8    51 1   
    24     9    10 1   
    25     9    52 1   
    26     9    53 1   
    27    10    11 1   
    28    10    54 1   
    29    10    55 1   
    30    11    12 1   
    31    11    56 1   
    32    12    13 1   
    33    12    57 1   
    34    12    58 1   
    35    13    14 ar  
    36    13    18 ar  
    37    14    15 ar  
    38    15    16 ar  
    39    15    22 ar  
    40    16    17 ar  
    41    16    19 ar  
    42    17    18 ar  
    43    17    59 1   
    44    18    60 1   
    45    19    20 ar  
    46    19    61 1   
    47    20    21 ar  
    48    20    62 1   
    49    21    22 ar  
    50    21    37 ar  
    51    22    23 ar  
    52    23    24 ar  
    53    24    25 1   
    54    24    36 ar  
    55    25    26 1   
    56    25    63 1   
    57    25    64 1   
    58    26    27 1   
    59    26    65 1   
    60    27    28 1   
    61    27    66 1   
    62    27    67 1   
    63    28    29 1   
    64    28    68 1   
    65    28    69 1   
    66    29    30 1   
    67    29    70 1   
    68    29    71 1   
    69    30    31 1   
    70    30    72 1   
    71    31    32 1   
    72    31    73 1   
    73    31    74 1   
    74    32    33 1   
    75    32    75 1   
    76    32    76 1   
    77    33    34 1   
    78    33    77 1   
    79    33    78 1   
    80    34    35 1   
    81    34    79 1   
    82    35    80 1   
    83    35    81 1   
    84    36    37 ar  
    85    36    82 1   
    86    37    83 1   
@<TRIPOS>SUBSTRUCTURE
     1 76          1 TEMP              0 ****  ****    0 ROOT
