@<TRIPOS>MOLECULE
ASB
  136   140     1     0     0
SMALL
bcc


@<TRIPOS>ATOM
      1 C1           3.3300     0.3850    -1.7880 C          1 ASB      -0.100300
      2 C2           3.9870     0.6750    -0.4540 C          1 ASB       0.078200
      3 C3           4.7910     1.8210    -0.2740 C          1 ASB      -0.140800
      4 C4           5.1250     2.7370    -1.4450 C          1 ASB       0.137050
      5 N1           4.1380     3.7650    -1.6430 N           1 ASB      -0.584150
      6 C5           4.4300     5.0850    -1.5530 C           1 ASB       0.762350
      7 O1           5.5170     5.5020    -1.1640 O           1 ASB      -0.659850
      8 N2           3.4580     5.9700    -1.8760 N           1 ASB      -0.531900
      9 C6           2.2900     5.8240    -2.7750 C          1 ASB       0.162950
     10 C7           1.5650     7.1870    -2.8360 C          1 ASB      -0.102725
     11 C8           2.8150     5.5080    -4.1920 C          1 ASB      -0.102725
     12 C9           1.2770     4.8010    -2.2320 C          1 ASB      -0.113300
     13 C10          0.5930     3.9090    -3.0680 C          1 ASB      -0.110500
     14 C11         -0.3210     2.9990    -2.5420 C          1 ASB      -0.128000
     15 C12         -0.5690     2.9610    -1.1700 C          1 ASB      -0.110500
     16 C13          0.0940     3.8270    -0.2850 C          1 ASB      -0.113300
     17 C14          0.9970     4.7520    -0.8470 C          1 ASB      -0.118000
     18 C15         -0.1750     3.8220     1.2350 C          1 ASB       0.162950
     19 C16          1.1310     3.9060     2.0580 C          1 ASB      -0.102725
     20 C17         -1.0210     5.0720     1.5690 C          1 ASB      -0.102725
     21 N3          -0.9720     2.6490     1.6590 N           1 ASB      -0.531900
     22 C18         -0.4980     1.3750     1.6710 C           1 ASB       0.762350
     23 O2           0.6720     1.0520     1.4850 O           1 ASB      -0.659850
     24 N4          -1.4240     0.4010     1.8740 N           1 ASB      -0.584150
     25 C19         -2.6850     0.5060     2.5760 C          1 ASB       0.137050
     26 C20         -3.5680    -0.6910     2.2470 C          1 ASB      -0.140800
     27 C21         -4.3490    -0.7010     1.0690 C          1 ASB       0.078200
     28 C22         -4.3610     0.4820     0.1210 C          1 ASB      -0.100300
     29 C23         -5.1620    -1.8260     0.7970 C          1 ASB      -0.140800
     30 C24         -6.0450    -1.8720    -0.4480 C          1 ASB       0.137050
     31 N5          -5.7840    -3.0410    -1.2650 N           1 ASB      -0.584150
     32 C25         -4.8000    -3.2200    -2.1890 C           1 ASB       0.762350
     33 O3          -4.9250    -4.1240    -3.0030 O           1 ASB      -0.659850
     34 N6          -3.7570    -2.3490    -2.1210 N           1 ASB      -0.531900
     35 C26         -2.5780    -2.4270    -3.0060 C          1 ASB       0.162950
     36 C27         -3.0040    -2.3700    -4.4930 C          1 ASB      -0.102725
     37 C28         -1.7430    -1.1380    -2.7720 C          1 ASB      -0.102725
     38 C29         -1.7250    -3.6490    -2.6210 C          1 ASB      -0.113300
     39 C30         -1.4900    -4.7090    -3.5020 C          1 ASB      -0.110500
     40 C31         -0.7060    -5.7980    -3.1200 C          1 ASB      -0.128000
     41 C32         -0.1360    -5.8530    -1.8480 C          1 ASB      -0.110500
     42 C33         -0.3470    -4.8260    -0.9180 C          1 ASB      -0.113300
     43 C34         -1.1590    -3.7450    -1.3290 C          1 ASB      -0.118000
     44 C35          0.2760    -4.8300     0.4900 C          1 ASB       0.162950
     45 C36         -0.8360    -4.9240     1.5560 C          1 ASB      -0.102725
     46 C37          1.2110    -6.0390     0.7400 C          1 ASB      -0.102725
     47 N7           1.1430    -3.6370     0.6310 N           1 ASB      -0.531900
     48 C38          0.7590    -2.3940     1.0260 C           1 ASB       0.762350
     49 O4          -0.3330    -2.1150     1.5180 O           1 ASB      -0.659850
     50 N8           1.6870    -1.4130     0.8740 N           1 ASB      -0.584150
     51 C39          3.0610    -1.5260     0.4410 C          1 ASB       0.137050
     52 C40          3.8250    -0.2240     0.6220 C          1 ASB      -0.140800
     53 C41          4.3860     0.0890     1.8860 C          1 ASB       0.071400
     54 C42          4.1310    -0.7970     3.0840 C          1 ASB      -0.104800
     55 N9           5.1880     1.1900     2.0210 N          1 ASB       0.002900
     56 C43          5.9790     1.3700     3.2700 C          1 ASB      -0.035400
     57 C44          5.3240     2.1040     1.0110 C          1 ASB       0.071400
     58 C45          6.0340     3.4130     1.2720 C          1 ASB      -0.104800
     59 C46         -5.1540    -2.9270     1.6930 C          1 ASB       0.071400
     60 C47         -6.1020    -4.0910     1.5100 C          1 ASB      -0.104800
     61 N10         -4.2620    -2.9500     2.7320 N          1 ASB       0.002900
     62 C48         -4.0360    -4.2300     3.4600 C          1 ASB      -0.035400
     63 C49         -3.5440    -1.8390     3.0840 C          1 ASB       0.071400
     64 C50         -2.7240    -1.8410     4.3540 C          1 ASB      -0.104800
     65 H1           3.1610     1.2870    -2.3800 H          1 ASB       0.085367
     66 H2           3.9510    -0.3050    -2.3680 H          1 ASB       0.085367
     67 H3           2.3330    -0.0470    -1.6530 H          1 ASB       0.085367
     68 H4           5.1890     2.1590    -2.3750 H          1 ASB       0.071200
     69 H5           6.1250     3.1660    -1.3270 H          1 ASB       0.071200
     70 H6           3.2090     3.4950    -1.9240 H          1 ASB       0.343750
     71 H7           3.8380     6.9090    -1.8270 H          1 ASB       0.304250
     72 H8           1.2370     7.5170    -1.8430 H          1 ASB       0.053742
     73 H9           0.6790     7.1420    -3.4810 H          1 ASB       0.053742
     74 H10          2.2260     7.9680    -3.2300 H          1 ASB       0.053742
     75 H11          3.2610     4.5080    -4.2470 H          1 ASB       0.053742
     76 H12          2.0210     5.5630    -4.9450 H          1 ASB       0.053742
     77 H13          3.5910     6.2240    -4.4900 H          1 ASB       0.053742
     78 H14          0.7400     3.9120    -4.1450 H          1 ASB       0.144250
     79 H15         -0.8530     2.3240    -3.2090 H          1 ASB       0.147000
     80 H16         -1.3000     2.2400    -0.8180 H          1 ASB       0.144250
     81 H17          1.5030     5.4670    -0.1990 H          1 ASB       0.140000
     82 H18          0.9340     3.7380     3.1230 H          1 ASB       0.053742
     83 H19          1.6110     4.8870     1.9700 H          1 ASB       0.053742
     84 H20          1.8710     3.1650     1.7350 H          1 ASB       0.053742
     85 H21         -1.9670     5.0730     1.0140 H          1 ASB       0.053742
     86 H22         -0.4970     6.0030     1.3250 H          1 ASB       0.053742
     87 H23         -1.2720     5.1020     2.6360 H          1 ASB       0.053742
     88 H24         -1.9430     2.7260     1.4060 H          1 ASB       0.304250
     89 H25         -0.9900    -0.5250     1.8600 H          1 ASB       0.343750
     90 H26         -3.2010     1.4440     2.3550 H          1 ASB       0.071200
     91 H27         -2.4510     0.5830     3.6400 H          1 ASB       0.071200
     92 H28         -3.6020     1.2340     0.3360 H          1 ASB       0.085367
     93 H29         -5.3370     0.9780     0.1610 H          1 ASB       0.085367
     94 H30         -4.1530     0.1610    -0.9030 H          1 ASB       0.085367
     95 H31         -7.0960    -1.9020    -0.1380 H          1 ASB       0.071200
     96 H32         -5.9420    -0.9970    -1.0920 H          1 ASB       0.071200
     97 H33         -6.5810    -3.6180    -1.5130 H          1 ASB       0.343750
     98 H34         -3.5350    -2.0770    -1.1810 H          1 ASB       0.304250
     99 H35         -3.6230    -1.4860    -4.6880 H          1 ASB       0.053742
    100 H36         -3.5920    -3.2380    -4.8060 H          1 ASB       0.053742
    101 H37         -2.1310    -2.3160    -5.1540 H          1 ASB       0.053742
    102 H38         -1.4750    -0.9950    -1.7200 H          1 ASB       0.053742
    103 H39         -0.8130    -1.1550    -3.3520 H          1 ASB       0.053742
    104 H40         -2.3090    -0.2460    -3.0670 H          1 ASB       0.053742
    105 H41         -1.9210    -4.7250    -4.5010 H          1 ASB       0.144250
    106 H42         -0.5430    -6.6130    -3.8230 H          1 ASB       0.147000
    107 H43          0.4660    -6.7270    -1.6150 H          1 ASB       0.144250
    108 H44         -1.3560    -2.9450    -0.6200 H          1 ASB       0.140000
    109 H45         -1.6070    -4.1570     1.4370 H          1 ASB       0.053742
    110 H46         -1.3550    -5.8890     1.4960 H          1 ASB       0.053742
    111 H47         -0.4250    -4.8260     2.5670 H          1 ASB       0.053742
    112 H48          1.6580    -5.9840     1.7410 H          1 ASB       0.053742
    113 H49          2.0430    -6.0620     0.0250 H          1 ASB       0.053742
    114 H50          0.6760    -6.9930     0.6730 H          1 ASB       0.053742
    115 H51          1.8750    -3.6350    -0.0630 H          1 ASB       0.304250
    116 H52          1.3380    -0.4770     1.0960 H          1 ASB       0.343750
    117 H53          3.5460    -2.3360     0.9990 H          1 ASB       0.071200
    118 H54          3.0710    -1.8630    -0.6000 H          1 ASB       0.071200
    119 H55          4.1340    -0.2230     4.0150 H          1 ASB       0.097867
    120 H56          3.1440    -1.2650     3.0510 H          1 ASB       0.097867
    121 H57          4.8930    -1.5810     3.1360 H          1 ASB       0.097867
    122 H58          5.4020     2.0120     3.9410 H          1 ASB       0.097200
    123 H59          6.9530     1.8010     3.0260 H          1 ASB       0.097200
    124 H60          6.1920     0.4040     3.7290 H          1 ASB       0.097200
    125 H61          6.1730     3.6280     2.3340 H          1 ASB       0.097867
    126 H62          5.4250     4.2420     0.9120 H          1 ASB       0.097867
    127 H63          7.0140     3.4220     0.7880 H          1 ASB       0.097867
    128 H64         -5.6460    -4.8550     0.8730 H          1 ASB       0.097867
    129 H65         -7.0550    -3.7780     1.0750 H          1 ASB       0.097867
    130 H66         -6.3690    -4.5380     2.4720 H          1 ASB       0.097867
    131 H67         -4.2430    -5.0810     2.8070 H          1 ASB       0.097200
    132 H68         -2.9810    -4.3140     3.7310 H          1 ASB       0.097200
    133 H69         -4.6850    -4.2340     4.3380 H          1 ASB       0.097200
    134 H70         -2.9610    -2.6690     5.0250 H          1 ASB       0.097867
    135 H71         -2.9340    -0.9460     4.9480 H          1 ASB       0.097867
    136 H72         -1.6570    -1.8820     4.1150 H          1 ASB       0.097867
@<TRIPOS>BOND
     1     1     2 1   
     2     1    65 1   
     3     1    66 1   
     4     1    67 1   
     5     2     3 ar  
     6     2    52 ar  
     7     3     4 1   
     8     3    57 ar  
     9     4     5 1   
    10     4    68 1   
    11     4    69 1   
    12     5     6 1   
    13     5    70 1   
    14     6     7 2   
    15     6     8 1   
    16     8     9 1   
    17     8    71 1   
    18     9    10 1   
    19     9    11 1   
    20     9    12 1   
    21    10    72 1   
    22    10    73 1   
    23    10    74 1   
    24    11    75 1   
    25    11    76 1   
    26    11    77 1   
    27    12    13 ar  
    28    12    17 ar  
    29    13    14 ar  
    30    13    78 1   
    31    14    15 ar  
    32    14    79 1   
    33    15    16 ar  
    34    15    80 1   
    35    16    17 ar  
    36    16    18 1   
    37    17    81 1   
    38    18    19 1   
    39    18    20 1   
    40    18    21 1   
    41    19    82 1   
    42    19    83 1   
    43    19    84 1   
    44    20    85 1   
    45    20    86 1   
    46    20    87 1   
    47    21    22 1   
    48    21    88 1   
    49    22    23 2   
    50    22    24 1   
    51    24    25 1   
    52    24    89 1   
    53    25    26 1   
    54    25    90 1   
    55    25    91 1   
    56    26    27 ar  
    57    26    63 ar  
    58    27    28 1   
    59    27    29 ar  
    60    28    92 1   
    61    28    93 1   
    62    28    94 1   
    63    29    30 1   
    64    29    59 ar  
    65    30    31 1   
    66    30    95 1   
    67    30    96 1   
    68    31    32 1   
    69    31    97 1   
    70    32    33 2   
    71    32    34 1   
    72    34    35 1   
    73    34    98 1   
    74    35    36 1   
    75    35    37 1   
    76    35    38 1   
    77    36    99 1   
    78    36   100 1   
    79    36   101 1   
    80    37   102 1   
    81    37   103 1   
    82    37   104 1   
    83    38    39 ar  
    84    38    43 ar  
    85    39    40 ar  
    86    39   105 1   
    87    40    41 ar  
    88    40   106 1   
    89    41    42 ar  
    90    41   107 1   
    91    42    43 ar  
    92    42    44 1   
    93    43   108 1   
    94    44    45 1   
    95    44    46 1   
    96    44    47 1   
    97    45   109 1   
    98    45   110 1   
    99    45   111 1   
   100    46   112 1   
   101    46   113 1   
   102    46   114 1   
   103    47    48 1   
   104    47   115 1   
   105    48    49 2   
   106    48    50 1   
   107    50    51 1   
   108    50   116 1   
   109    51    52 1   
   110    51   117 1   
   111    51   118 1   
   112    52    53 ar  
   113    53    54 1   
   114    53    55 2   
   115    54   119 1   
   116    54   120 1   
   117    54   121 1   
   118    55    56 1   
   119    55    57 1   
   120    56   122 1   
   121    56   123 1   
   122    56   124 1   
   123    57    58 1   
   124    58   125 1   
   125    58   126 1   
   126    58   127 1   
   127    59    60 1   
   128    59    61 2   
   129    60   128 1   
   130    60   129 1   
   131    60   130 1   
   132    61    62 1   
   133    61    63 1   
   134    62   131 1   
   135    62   132 1   
   136    62   133 1   
   137    63    64 1   
   138    64   134 1   
   139    64   135 1   
   140    64   136 1   
@<TRIPOS>SUBSTRUCTURE
     1 ASB         1 TEMP              0 ****  ****    0 ROOT
