@<TRIPOS>MOLECULE
65
  105   114     1     0     0
SMALL
bcc


@<TRIPOS>ATOM
      1 C           -3.5440     2.2310    -2.1460 C          0 65       -0.089100
      2 C1          -4.5790     2.8810    -1.2270 C          0 65        0.093600
      3 C2          -5.6440     3.5610    -2.0910 C          0 65       -0.089100
      4 C3          -5.2360     1.8100    -0.4090 C          0 65       -0.126600
      5 C4          -6.3140     1.9590     0.3920 C          0 65       -0.182000
      6 C5          -6.6560     0.6900     0.8870 C          0 65       -0.174000
      7 C6          -5.7520    -0.1980     0.3910 C          0 65       -0.082300
      8 N           -4.8410     0.5030    -0.3580 N          0 65       -0.163100
      9 C7          -5.7690    -1.6680     0.5670 C          0 65       -0.009000
     10 C8          -4.6120    -2.4210     0.3880 C          0 65       -0.132000
     11 C9          -4.6520    -3.8020     0.5620 C          0 65       -0.007000
     12 C10         -5.8580    -4.4260     0.8950 C          0 65       -0.114000
     13 C11         -7.0080    -3.6780     1.0460 C          0 65       -0.126000
     14 C12         -6.9710    -2.3070     0.8910 C          0 65       -0.114000
     15 C13         -3.4350    -4.6220     0.3700 C          0 65       -0.085300
     16 C14         -3.2150    -5.8730     0.8590 C          0 65       -0.173000
     17 C15         -1.9550    -6.2880     0.3980 C          0 65       -0.190000
     18 C16         -1.4590    -5.3040    -0.3860 C          0 65       -0.105600
     19 N1          -2.3260    -4.2490    -0.3460 N          0 65       -0.155100
     20 C17         -0.2130    -5.3790    -1.2190 C          0 65        0.093600
     21 C18         -0.2750    -6.6400    -2.0820 C          0 65       -0.088100
     22 C19         -0.1640    -4.1570    -2.1390 C          0 65       -0.088100
     23 C20          1.0480    -5.4150    -0.4040 C          0 65       -0.127600
     24 C21          1.4560    -6.4330     0.3880 C          0 65       -0.186000
     25 C22          2.7280    -6.1030     0.8870 C          0 65       -0.174000
     26 C23          3.0490    -4.8760     0.3980 C          0 65       -0.081300
     27 N2           1.9930    -4.4300    -0.3550 N          0 65       -0.161100
     28 C24          4.3300    -4.1570     0.5860 C          0 65       -0.008000
     29 C25          4.4070    -2.7810     0.3980 C          0 65       -0.135000
     30 C26          5.6230    -2.1260     0.5790 C          0 65       -0.001000
     31 C27          6.7620    -2.8600     0.9250 C          0 65       -0.117000
     32 C28          6.6850    -4.2300     1.0840 C          0 65       -0.125000
     33 C29          5.4780    -4.8800     0.9240 C          0 65       -0.117000
     34 C30          5.7280    -0.6630     0.3820 C          0 65       -0.094300
     35 C31          6.6980     0.1560     0.8780 C          0 65       -0.171000
     36 C32          6.4330     1.4530     0.4060 C          0 65       -0.201000
     37 C33          5.3470     1.3850    -0.3940 C          0 65       -0.097600
     38 N3           4.8610     0.1090    -0.3490 N          0 65       -0.156100
     39 C34          4.8020     2.4950    -1.2440 C          0 65        0.096600
     40 C35          5.9410     3.0740    -2.0850 C          0 65       -0.081600
     41 C36          3.7430     1.9180    -2.1860 C          0 65       -0.081600
     42 C37          4.1790     3.6050    -0.4480 C          0 65       -0.168300
     43 C38          4.8260     4.4930     0.3420 C          0 65       -0.134300
     44 N4           3.9170     5.3870     0.8240 N          0 65       -0.166100
     45 C39          2.6810     5.0560     0.3410 C          0 65       -0.086300
     46 C40          2.8120     3.9390    -0.4260 C          0 65       -0.166000
     47 C41          1.4210     5.8070     0.5570 C          0 65       -0.004000
     48 C42          0.1890     5.1890     0.3710 C          0 65       -0.119000
     49 C43         -0.9850     5.9100     0.5780 C          0 65       -0.002000
     50 C44         -0.9140     7.2580     0.9460 C          0 65       -0.116000
     51 C45          0.3140     7.8720     1.1050 C          0 65       -0.122000
     52 C46          1.4790     7.1570     0.9140 C          0 65       -0.135000
     53 C47         -2.3050     5.2680     0.3870 C          0 65       -0.085300
     54 C48         -3.4910     5.6810     0.9140 C          0 65       -0.172000
     55 C49         -4.4880     4.8170     0.4290 C          0 65       -0.190000
     56 C50         -3.8960     3.9270    -0.3940 C          0 65       -0.102600
     57 N5          -2.5490     4.1550    -0.3770 N          0 65       -0.154100
     58 H           -3.0810     2.9960    -2.7700 H          0 65        0.043367
     59 H1          -2.7780     1.7430    -1.5430 H          0 65        0.043367
     60 H2          -4.0330     1.4920    -2.7800 H          0 65        0.043367
     61 H3          -6.1260     2.8170    -2.7250 H          0 65        0.043367
     62 H4          -6.3890     4.0290    -1.4480 H          0 65        0.043367
     63 H5          -5.1740     4.3200    -2.7160 H          0 65        0.043367
     64 H6          -6.8210     2.8870     0.6130 H          0 65        0.161000
     65 H7          -7.4840     0.4600     1.5420 H          0 65        0.154000
     66 H8          -4.0500     0.1340    -0.7800 H          0 65        0.295700
     67 H9          -3.6870    -1.9360     0.1140 H          0 65        0.128000
     68 H10         -5.8890    -5.4960     1.0350 H          0 65        0.142000
     69 H11         -7.9410    -4.1670     1.2870 H          0 65        0.135000
     70 H12         -7.8720    -1.7260     1.0200 H          0 65        0.142000
     71 H13         -3.8860    -6.4420     1.4870 H          0 65        0.153000
     72 H14         -1.4690    -7.2250     0.6280 H          0 65        0.152000
     73 H15         -2.1810    -3.3820    -0.7550 H          0 65        0.301700
     74 H16         -1.1510    -6.5940    -2.7300 H          0 65        0.043033
     75 H17          0.6260    -6.7070    -2.6930 H          0 65        0.043033
     76 H18         -0.3430    -7.5180    -1.4400 H          0 65        0.043033
     77 H19         -0.1540    -3.2490    -1.5360 H          0 65        0.043033
     78 H20          0.7370    -4.1990    -2.7500 H          0 65        0.043033
     79 H21         -1.0420    -4.1540    -2.7850 H          0 65        0.043033
     80 H22          0.9040    -7.3370     0.5990 H          0 65        0.161000
     81 H23          3.3370    -6.7120     1.5380 H          0 65        0.154000
     82 H24          1.9290    -3.5610    -0.7820 H          0 65        0.295700
     83 H25          3.5270    -2.2220     0.1140 H          0 65        0.126000
     84 H26          7.7050    -2.3540     1.0680 H          0 65        0.141000
     85 H27          7.5710    -4.7940     1.3350 H          0 65        0.135000
     86 H28          5.4200    -5.9500     1.0610 H          0 65        0.141000
     87 H29          7.5180    -0.1380     1.5160 H          0 65        0.151000
     88 H30          6.9970     2.3430     0.6410 H          0 65        0.152000
     89 H31          4.0400    -0.2000    -0.7650 H          0 65        0.298700
     90 H32          6.3580     2.2920    -2.7200 H          0 65        0.039867
     91 H33          5.5590     3.8820    -2.7070 H          0 65        0.039867
     92 H34          6.7190     3.4590    -1.4260 H          0 65        0.039867
     93 H35          2.9400     1.4710    -1.6000 H          0 65        0.039867
     94 H36          3.3390     2.7140    -2.8100 H          0 65        0.039867
     95 H37          4.1970     1.1560    -2.8190 H          0 65        0.039867
     96 H38          5.8850     4.4930     0.5550 H          0 65        0.176000
     97 H39          4.1140     6.1340     1.4110 H          0 65        0.297700
     98 H40          2.0150     3.4080    -0.9250 H          0 65        0.154000
     99 H41          0.1420     4.1530     0.0670 H          0 65        0.136000
    100 H42         -1.8220     7.8210     1.1060 H          0 65        0.142000
    101 H43          0.3620     8.9150     1.3800 H          0 65        0.134000
    102 H44          2.4360     7.6410     1.0410 H          0 65        0.128000
    103 H45         -3.6380     6.5170     1.5820 H          0 65        0.152000
    104 H46         -5.5390     4.8570     0.6740 H          0 65        0.153000
    105 H47         -1.8780     3.6190    -0.8260 H          0 65        0.299700
@<TRIPOS>BOND
     1     1     2 1   
     2     1    58 1   
     3     1    59 1   
     4     1    60 1   
     5     2     3 1   
     6     2     4 1   
     7     2    56 1   
     8     3    61 1   
     9     3    62 1   
    10     3    63 1   
    11     4     5 2   
    12     4     8 1   
    13     5     6 1   
    14     5    64 1   
    15     6     7 2   
    16     6    65 1   
    17     7     8 1   
    18     7     9 1   
    19     8    66 1   
    20     9    10 ar  
    21     9    14 ar  
    22    10    11 ar  
    23    10    67 1   
    24    11    12 ar  
    25    11    15 1   
    26    12    13 ar  
    27    12    68 1   
    28    13    14 ar  
    29    13    69 1   
    30    14    70 1   
    31    15    16 2   
    32    15    19 1   
    33    16    17 1   
    34    16    71 1   
    35    17    18 2   
    36    17    72 1   
    37    18    19 1   
    38    18    20 1   
    39    19    73 1   
    40    20    21 1   
    41    20    22 1   
    42    20    23 1   
    43    21    74 1   
    44    21    75 1   
    45    21    76 1   
    46    22    77 1   
    47    22    78 1   
    48    22    79 1   
    49    23    24 2   
    50    23    27 1   
    51    24    25 1   
    52    24    80 1   
    53    25    26 2   
    54    25    81 1   
    55    26    27 1   
    56    26    28 1   
    57    27    82 1   
    58    28    29 ar  
    59    28    33 ar  
    60    29    30 ar  
    61    29    83 1   
    62    30    31 ar  
    63    30    34 1   
    64    31    32 ar  
    65    31    84 1   
    66    32    33 ar  
    67    32    85 1   
    68    33    86 1   
    69    34    35 2   
    70    34    38 1   
    71    35    36 1   
    72    35    87 1   
    73    36    37 2   
    74    36    88 1   
    75    37    38 1   
    76    37    39 1   
    77    38    89 1   
    78    39    40 1   
    79    39    41 1   
    80    39    42 1   
    81    40    90 1   
    82    40    91 1   
    83    40    92 1   
    84    41    93 1   
    85    41    94 1   
    86    41    95 1   
    87    42    43 2   
    88    42    46 1   
    89    43    44 1   
    90    43    96 1   
    91    44    45 1   
    92    44    97 1   
    93    45    46 2   
    94    45    47 1   
    95    46    98 1   
    96    47    48 ar  
    97    47    52 ar  
    98    48    49 ar  
    99    48    99 1   
   100    49    50 ar  
   101    49    53 1   
   102    50    51 ar  
   103    50   100 1   
   104    51    52 ar  
   105    51   101 1   
   106    52   102 1   
   107    53    54 2   
   108    53    57 1   
   109    54    55 1   
   110    54   103 1   
   111    55    56 2   
   112    55   104 1   
   113    56    57 1   
   114    57   105 1   
@<TRIPOS>SUBSTRUCTURE
     1 65          1 TEMP              0 ****  ****    0 ROOT
