@<TRIPOS>MOLECULE
202
  116   130     1     0     0
SMALL
bcc


@<TRIPOS>ATOM
      1 C1           8.9190     5.1020     0.5030 C          1 202      -0.118000
      2 C2           9.1430     4.5150     1.7410 C          1 202      -0.124000
      3 C3           8.4220     3.3770     2.1040 C          1 202      -0.154300
      4 C4           7.4790     2.8150     1.2520 C          1 202       0.280300
      5 N1           6.8030     1.7210     1.6450 N          1 202      -0.599000
      6 C5           5.8910     1.2220     0.7730 C          1 202       0.376500
      7 C6           5.1770     0.0620     1.3030 C          1 202      -0.180800
      8 C7           5.6670    -1.1120     1.8410 C          1 202      -0.170000
      9 C8           4.5640    -1.9510     2.1240 C          1 202      -0.149000
     10 C9           3.4030    -1.2580     1.8200 C          1 202      -0.234200
     11 C10          2.0480    -1.7520     1.9250 C          1 202       0.539800
     12 N2           0.9360    -1.0940     2.0790 N          1 202      -0.589100
     13 C11          0.9240     0.3010     2.2460 C          1 202       0.142400
     14 C12          1.2750     0.8340     3.4930 C          1 202      -0.171000
     15 C13          1.2970     2.2100     3.6960 C          1 202      -0.111000
     16 C14          0.9540     3.0680     2.6540 C          1 202      -0.132000
     17 C15          0.5700     2.5630     1.4020 C          1 202      -0.021000
     18 C16          0.2200     3.4280     0.3540 C          1 202      -0.119000
     19 C17         -0.1710     2.9420    -0.9040 C          1 202      -0.026000
     20 C18         -0.5150     3.8270    -1.9370 C          1 202      -0.123000
     21 C19         -0.9040     3.3510    -3.1860 C          1 202      -0.116000
     22 C20         -0.9620     1.9800    -3.4140 C          1 202      -0.164000
     23 C21         -0.6440     1.0700    -2.3970 C          1 202       0.132400
     24 N3          -0.7050    -0.3050    -2.6880 N          1 202      -0.596100
     25 C22         -1.8400    -0.9400    -2.7250 C          1 202       0.528800
     26 C23         -3.1560    -0.4590    -2.3770 C          1 202      -0.237200
     27 C24         -4.3700    -0.8600    -2.9080 C          1 202      -0.144000
     28 C25         -5.3980    -0.1470    -2.2450 C          1 202      -0.191000
     29 C26         -4.8070     0.6270    -1.2660 C          1 202      -0.173800
     30 N4          -3.4460     0.4610    -1.3950 N          1 202      -0.130100
     31 C27         -5.3990     1.4900    -0.2490 C          1 202       0.368500
     32 N5          -6.1980     2.4550    -0.7650 N          1 202      -0.597000
     33 C28         -6.7260     3.3280     0.1120 C          1 202       0.274300
     34 C29         -7.5490     4.3470    -0.3510 C          1 202      -0.152300
     35 C30         -8.1130     5.2800     0.5200 C          1 202      -0.126000
     36 C31         -7.8500     5.1930     1.8810 C          1 202      -0.115000
     37 C32         -7.0250     4.1740     2.3590 C          1 202      -0.162300
     38 C33         -6.4580     3.2390     1.5020 C          1 202       0.305300
     39 N6          -5.6740     2.2700     2.0080 N          1 202      -0.627000
     40 C34         -5.1550     1.3800     1.1260 C          1 202       0.416500
     41 C35         -4.3670     0.3220     1.7610 C          1 202      -0.192800
     42 C36         -3.5350     0.3640     2.8680 C          1 202      -0.138000
     43 C37         -2.9770    -0.9260     3.0540 C          1 202      -0.171000
     44 C38         -3.4980    -1.7490     2.0760 C          1 202      -0.182200
     45 C39         -3.2130    -3.1260     1.7800 C          1 202       0.522800
     46 N7          -3.7630    -3.6670     0.7400 N          1 202      -0.596100
     47 C40         -3.3310    -4.9690     0.4090 C          1 202       0.148400
     48 C41         -4.1870    -6.0420     0.6660 C          1 202      -0.160000
     49 C42         -3.8170    -7.3400     0.3210 C          1 202      -0.116000
     50 C43         -2.5880    -7.5750    -0.2960 C          1 202      -0.124000
     51 C44         -1.7080    -6.5170    -0.5810 C          1 202      -0.030000
     52 C45         -0.4640    -6.7470    -1.2060 C          1 202      -0.110000
     53 C46          0.4290    -5.6940    -1.4780 C          1 202      -0.033000
     54 C47          1.6930    -5.8900    -2.0690 C          1 202      -0.120000
     55 C48          2.5660    -4.8110    -2.2780 C          1 202      -0.101000
     56 C49          2.1850    -3.5230    -1.9180 C          1 202       0.143400
     57 C50          0.9280    -3.3280    -1.3440 C          1 202      -0.158000
     58 C51          0.0490    -4.3890    -1.1250 C          1 202      -0.032000
     59 C52         -1.1940    -4.1540    -0.5310 C          1 202      -0.096000
     60 C53         -2.0850    -5.2000    -0.2310 C          1 202      -0.016000
     61 N8           3.0790    -2.4460    -1.9950 N          1 202      -0.606100
     62 C54          2.7000    -1.4290    -2.7030 C          1 202       0.525800
     63 C55          3.4180    -0.1930    -2.5610 C          1 202      -0.179200
     64 C56          3.1980     1.0390    -3.1400 C          1 202      -0.161000
     65 C57          4.0540     1.9670    -2.4950 C          1 202      -0.145000
     66 C58          4.7630     1.2920    -1.5120 C          1 202      -0.198800
     67 N9           4.4660    -0.0420    -1.6850 N          1 202      -0.123100
     68 C59          5.6840     1.7940    -0.4900 C          1 202       0.403500
     69 N10          6.3550     2.9080    -0.8790 N          1 202      -0.616000
     70 C60          7.2510     3.4130    -0.0120 C          1 202       0.297300
     71 C61          7.9750     4.5460    -0.3620 C          1 202      -0.160300
     72 N11         -4.3740    -0.9890     1.3380 N          1 202      -0.121100
     73 C62         -0.2230     1.5500    -1.1310 C          1 202      -0.029000
     74 C63          0.1330     0.6930    -0.0700 C          1 202      -0.069000
     75 C64          0.5380     1.1670     1.1940 C          1 202      -0.034000
     76 N12          3.8010    -0.0230     1.3550 N          1 202      -0.131100
     77 H1           9.4740     5.9890     0.2060 H          1 202       0.140000
     78 H2           9.8750     4.9370     2.4250 H          1 202       0.140000
     79 H3           8.5950     2.9160     3.0740 H          1 202       0.155000
     80 H4           6.7150    -1.3500     1.9730 H          1 202       0.165000
     81 H5           4.6100    -2.9590     2.5180 H          1 202       0.161000
     82 H6           1.9470    -2.8510     1.8830 H          1 202       0.037800
     83 H7           1.5450     0.1650     4.3070 H          1 202       0.144000
     84 H8           1.5820     2.6130     4.6650 H          1 202       0.137000
     85 H9           0.9800     4.1420     2.8300 H          1 202       0.135000
     86 H10          0.2520     4.5040     0.5210 H          1 202       0.136000
     87 H11         -0.4780     4.9030    -1.7770 H          1 202       0.136000
     88 H12         -1.1620     4.0460    -3.9810 H          1 202       0.139000
     89 H13         -1.2620     1.6100    -4.3910 H          1 202       0.146000
     90 H14         -1.7980    -1.9860    -3.0750 H          1 202       0.037800
     91 H15         -4.5020    -1.5830    -3.7030 H          1 202       0.165000
     92 H16         -6.4630    -0.2190    -2.4310 H          1 202       0.166000
     93 H17         -2.7580     0.9100    -0.8040 H          1 202       0.317700
     94 H18         -7.7520     4.4140    -1.4180 H          1 202       0.154000
     95 H19         -8.7540     6.0680     0.1330 H          1 202       0.141000
     96 H20         -8.2830     5.9120     2.5710 H          1 202       0.141000
     97 H21         -6.8200     4.1020     3.4250 H          1 202       0.155000
     98 H22         -3.3280     1.2490     3.4580 H          1 202       0.168000
     99 H23         -2.2510    -1.2100     3.8050 H          1 202       0.158000
    100 H24         -2.4870    -3.6600     2.4210 H          1 202      -0.004200
    101 H25         -5.1520    -5.8590     1.1330 H          1 202       0.135000
    102 H26         -4.4890    -8.1690     0.5270 H          1 202       0.134000
    103 H27         -2.3190    -8.5970    -0.5580 H          1 202       0.134000
    104 H28         -0.1810    -7.7630    -1.4740 H          1 202       0.135000
    105 H29          2.0180    -6.8890    -2.3500 H          1 202       0.135000
    106 H30          3.5520    -4.9830    -2.7000 H          1 202       0.147000
    107 H31          0.6490    -2.3270    -1.0330 H          1 202       0.142000
    108 H32         -1.4690    -3.1300    -0.2840 H          1 202       0.148000
    109 H33          1.7960    -1.4370    -3.3390 H          1 202       0.009800
    110 H34          2.4520     1.2650    -3.8910 H          1 202       0.163000
    111 H35          4.0990     3.0350    -2.6690 H          1 202       0.166000
    112 H36          4.8330    -0.8130    -1.1400 H          1 202       0.323700
    113 H37          7.8000     5.0030    -1.3330 H          1 202       0.155000
    114 H38         -4.8960    -1.3610     0.5530 H          1 202       0.327700
    115 H39          0.0860    -0.3810    -0.2280 H          1 202       0.157000
    116 H40          3.1720     0.6990     1.0260 H          1 202       0.318700
@<TRIPOS>BOND
     1     1     2 ar  
     2     1    71 ar  
     3     1    77 1   
     4     2     3 ar  
     5     2    78 1   
     6     3     4 ar  
     7     3    79 1   
     8     4     5 ar  
     9     4    70 ar  
    10     5     6 ar  
    11     6     7 1   
    12     6    68 ar  
    13     7     8 2   
    14     7    76 1   
    15     8     9 1   
    16     8    80 1   
    17     9    10 2   
    18     9    81 1   
    19    10    11 1   
    20    10    76 1   
    21    11    12 2   
    22    11    82 1   
    23    12    13 1   
    24    13    14 ar  
    25    13    75 ar  
    26    14    15 ar  
    27    14    83 1   
    28    15    16 ar  
    29    15    84 1   
    30    16    17 ar  
    31    16    85 1   
    32    17    18 ar  
    33    17    75 ar  
    34    18    19 ar  
    35    18    86 1   
    36    19    20 ar  
    37    19    73 ar  
    38    20    21 ar  
    39    20    87 1   
    40    21    22 ar  
    41    21    88 1   
    42    22    23 ar  
    43    22    89 1   
    44    23    24 1   
    45    23    73 ar  
    46    24    25 2   
    47    25    26 1   
    48    25    90 1   
    49    26    27 2   
    50    26    30 1   
    51    27    28 1   
    52    27    91 1   
    53    28    29 2   
    54    28    92 1   
    55    29    30 1   
    56    29    31 1   
    57    30    93 1   
    58    31    32 ar  
    59    31    40 ar  
    60    32    33 ar  
    61    33    34 ar  
    62    33    38 ar  
    63    34    35 ar  
    64    34    94 1   
    65    35    36 ar  
    66    35    95 1   
    67    36    37 ar  
    68    36    96 1   
    69    37    38 ar  
    70    37    97 1   
    71    38    39 ar  
    72    39    40 ar  
    73    40    41 1   
    74    41    42 2   
    75    41    72 1   
    76    42    43 1   
    77    42    98 1   
    78    43    44 2   
    79    43    99 1   
    80    44    45 1   
    81    44    72 1   
    82    45    46 2   
    83    45   100 1   
    84    46    47 1   
    85    47    48 ar  
    86    47    60 ar  
    87    48    49 ar  
    88    48   101 1   
    89    49    50 ar  
    90    49   102 1   
    91    50    51 ar  
    92    50   103 1   
    93    51    52 ar  
    94    51    60 ar  
    95    52    53 ar  
    96    52   104 1   
    97    53    54 ar  
    98    53    58 ar  
    99    54    55 ar  
   100    54   105 1   
   101    55    56 ar  
   102    55   106 1   
   103    56    57 ar  
   104    56    61 1   
   105    57    58 ar  
   106    57   107 1   
   107    58    59 ar  
   108    59    60 ar  
   109    59   108 1   
   110    61    62 2   
   111    62    63 1   
   112    62   109 1   
   113    63    64 2   
   114    63    67 1   
   115    64    65 1   
   116    64   110 1   
   117    65    66 2   
   118    65   111 1   
   119    66    67 1   
   120    66    68 1   
   121    67   112 1   
   122    68    69 ar  
   123    69    70 ar  
   124    70    71 ar  
   125    71   113 1   
   126    72   114 1   
   127    73    74 ar  
   128    74    75 ar  
   129    74   115 1   
   130    76   116 1   
@<TRIPOS>SUBSTRUCTURE
     1 202         1 TEMP              0 ****  ****    0 ROOT
