@<TRIPOS>MOLECULE
147
   86    88     1     0     0
SMALL
bcc


@<TRIPOS>ATOM
      1 O           11.1040     0.0480    -0.1740 O          0 147      -0.595800
      2 C           10.3150     0.2190     1.0050 C          0 147       0.174700
      3 C1           8.8530     0.1500     0.6450 C          0 147      -0.028300
      4 C2           8.1950    -1.0640     0.6600 C          0 147      -0.180000
      5 C3           6.8480    -1.1300     0.3300 C          0 147       0.161100
      6 C4           6.1640     0.0240    -0.0160 C          0 147      -0.277000
      7 C5           6.8260     1.2410    -0.0330 C          0 147       0.161100
      8 O1           6.1630     2.3770    -0.3760 O          0 147      -0.331900
      9 C6           4.7950     2.1920    -0.0110 C          0 147       0.124900
     10 C7           3.9380     3.2650    -0.6860 C          0 147       0.126400
     11 O2           2.8790     3.6520     0.1920 O          0 147      -0.425600
     12 C8           2.2450     4.7890    -0.3980 C          0 147       0.128400
     13 C9           0.9860     5.1410     0.3980 C          0 147       0.127400
     14 O3          -0.1600     5.0290    -0.4470 O          0 147      -0.429600
     15 C10         -1.3000     5.3340     0.3580 C          0 147       0.127400
     16 C11         -2.5760     4.9890    -0.4140 C          0 147       0.128400
     17 O4          -3.1060     3.7530     0.0680 O          0 147      -0.425600
     18 C12         -4.2650     3.4660    -0.7170 C          0 147       0.126400
     19 C13         -4.9810     2.2400    -0.1460 C          0 147       0.124900
     20 O5          -6.3830     2.3480    -0.4010 O          0 147      -0.331900
     21 C14         -6.9340     1.1390    -0.1200 C          0 147       0.161100
     22 C15         -8.1850     1.0720     0.4780 C          0 147      -0.180000
     23 C16         -8.7510    -0.1560     0.7640 C          0 147      -0.028300
     24 C17        -10.1090    -0.2250     1.4150 C          0 147       0.174700
     25 O6         -11.1190    -0.2620     0.4050 O          0 147      -0.595800
     26 C18         -8.0740    -1.3190     0.4540 C          0 147      -0.180000
     27 C19         -6.8230    -1.2580    -0.1450 C          0 147       0.161100
     28 O7          -6.1650    -2.4060    -0.4540 O          0 147      -0.331900
     29 C20         -4.7860    -2.1960    -0.1420 C          0 147       0.124900
     30 C21         -3.9430    -3.2910    -0.7990 C          0 147       0.126400
     31 O8          -2.8830    -3.6690     0.0820 O          0 147      -0.425600
     32 C22         -2.2450    -4.8070    -0.5000 C          0 147       0.128400
     33 C23         -1.0000    -5.1660     0.3150 C          0 147       0.127400
     34 O9           0.1660    -4.9740    -0.4880 O          0 147      -0.429600
     35 C24          1.2930    -5.2640     0.3420 C          0 147       0.127400
     36 C25          2.5820    -4.9450    -0.4190 C          0 147       0.128400
     37 O10          3.0680    -3.6640    -0.0150 O          0 147      -0.425600
     38 C26          4.3290    -3.4740    -0.6590 C          0 147       0.126400
     39 C27          4.9190    -2.1270    -0.2390 C          0 147       0.124900
     40 O11          6.2060    -2.3280     0.3480 O          0 147      -0.331900
     41 C28         -6.2520    -0.0280    -0.4300 C          0 147      -0.277000
     42 C29          8.1710     1.3030     0.3060 C          0 147      -0.180000
     43 H           12.0300     0.0980     0.1000 H          0 147       0.402000
     44 H1          10.5510    -0.5700     1.7180 H          0 147       0.035200
     45 H2          10.5340     1.1890     1.4500 H          0 147       0.035200
     46 H3           8.7290    -1.9640     0.9290 H          0 147       0.158500
     47 H4           5.1160    -0.0250    -0.2730 H          0 147       0.144000
     48 H5           4.4620     1.2060    -0.3330 H          0 147       0.056200
     49 H6           4.6930     2.2740     1.0710 H          0 147       0.056200
     50 H7           4.5560     4.1340    -0.9140 H          0 147       0.046200
     51 H8           3.5170     2.8670    -1.6090 H          0 147       0.046200
     52 H9           2.9320     5.6360    -0.3850 H          0 147       0.043450
     53 H10          1.9710     4.5590    -1.4280 H          0 147       0.043450
     54 H11          0.8860     4.4560     1.2400 H          0 147       0.044700
     55 H12          1.0650     6.1630     0.7690 H          0 147       0.044700
     56 H13         -1.2630     4.7490     1.2770 H          0 147       0.044700
     57 H14         -1.2990     6.3960     0.6020 H          0 147       0.044700
     58 H15         -3.3120     5.7800    -0.2700 H          0 147       0.043450
     59 H16         -2.3450     4.8970    -1.4750 H          0 147       0.043450
     60 H17         -4.9390     4.3230    -0.6960 H          0 147       0.046200
     61 H18         -3.9660     3.2660    -1.7460 H          0 147       0.046200
     62 H19         -4.5940     1.3390    -0.6210 H          0 147       0.056200
     63 H20         -4.8100     2.1880     0.9290 H          0 147       0.056200
     64 H21         -8.7160     1.9800     0.7210 H          0 147       0.158500
     65 H22        -10.1730    -1.1250     2.0260 H          0 147       0.035200
     66 H23        -10.2550     0.6530     2.0440 H          0 147       0.035200
     67 H24        -11.9700    -0.3060     0.8630 H          0 147       0.402000
     68 H25         -8.5190    -2.2780     0.6780 H          0 147       0.158500
     69 H26         -4.4730    -1.2220    -0.5170 H          0 147       0.056200
     70 H27         -4.6490    -2.2310     0.9390 H          0 147       0.056200
     71 H28         -4.5700    -4.1580    -1.0060 H          0 147       0.046200
     72 H29         -3.5230    -2.9150    -1.7320 H          0 147       0.046200
     73 H30         -2.9350    -5.6510    -0.4980 H          0 147       0.043450
     74 H31         -1.9550    -4.5770    -1.5250 H          0 147       0.043450
     75 H32         -0.9450    -4.5240     1.1950 H          0 147       0.044700
     76 H33         -1.0580    -6.2080     0.6280 H          0 147       0.044700
     77 H34          1.2450    -4.6570     1.2460 H          0 147       0.044700
     78 H35          1.2820    -6.3200     0.6130 H          0 147       0.044700
     79 H36          3.3320    -5.7040    -0.1970 H          0 147       0.043450
     80 H37          2.3790    -4.9370    -1.4900 H          0 147       0.043450
     81 H38          5.0090    -4.2750    -0.3690 H          0 147       0.046200
     82 H39          4.1900    -3.4890    -1.7410 H          0 147       0.046200
     83 H40          5.0160    -1.4840    -1.1140 H          0 147       0.056200
     84 H41          4.2610    -1.6530     0.4890 H          0 147       0.056200
     85 H42         -5.2780     0.0220    -0.8940 H          0 147       0.144000
     86 H43          8.6870     2.2520     0.2950 H          0 147       0.158500
@<TRIPOS>BOND
     1     1     2 1   
     2     1    43 1   
     3     2     3 1   
     4     2    44 1   
     5     2    45 1   
     6     3     4 ar  
     7     3    42 ar  
     8     4     5 ar  
     9     4    46 1   
    10     5     6 ar  
    11     5    40 1   
    12     6     7 ar  
    13     6    47 1   
    14     7     8 1   
    15     7    42 ar  
    16     8     9 1   
    17     9    10 1   
    18     9    48 1   
    19     9    49 1   
    20    10    11 1   
    21    10    50 1   
    22    10    51 1   
    23    11    12 1   
    24    12    13 1   
    25    12    52 1   
    26    12    53 1   
    27    13    14 1   
    28    13    54 1   
    29    13    55 1   
    30    14    15 1   
    31    15    16 1   
    32    15    56 1   
    33    15    57 1   
    34    16    17 1   
    35    16    58 1   
    36    16    59 1   
    37    17    18 1   
    38    18    19 1   
    39    18    60 1   
    40    18    61 1   
    41    19    20 1   
    42    19    62 1   
    43    19    63 1   
    44    20    21 1   
    45    21    22 ar  
    46    21    41 ar  
    47    22    23 ar  
    48    22    64 1   
    49    23    24 1   
    50    23    26 ar  
    51    24    25 1   
    52    24    65 1   
    53    24    66 1   
    54    25    67 1   
    55    26    27 ar  
    56    26    68 1   
    57    27    28 1   
    58    27    41 ar  
    59    28    29 1   
    60    29    30 1   
    61    29    69 1   
    62    29    70 1   
    63    30    31 1   
    64    30    71 1   
    65    30    72 1   
    66    31    32 1   
    67    32    33 1   
    68    32    73 1   
    69    32    74 1   
    70    33    34 1   
    71    33    75 1   
    72    33    76 1   
    73    34    35 1   
    74    35    36 1   
    75    35    77 1   
    76    35    78 1   
    77    36    37 1   
    78    36    79 1   
    79    36    80 1   
    80    37    38 1   
    81    38    39 1   
    82    38    81 1   
    83    38    82 1   
    84    39    40 1   
    85    39    83 1   
    86    39    84 1   
    87    41    85 1   
    88    42    86 1   
@<TRIPOS>SUBSTRUCTURE
     1 147         1 TEMP              0 ****  ****    0 ROOT
