@<TRIPOS>MOLECULE
35
  108   121     1     0     0
SMALL
bcc


@<TRIPOS>ATOM
      1 O1           3.8440     1.8930    -3.4020 O           1 35       -0.587500
      2 C1           3.6680     2.0410    -2.1960 C           1 35        0.716600
      3 C2           2.5050     2.8390    -1.7350 C          1 35       -0.117100
      4 C3           1.5830     3.3430    -2.6610 C          1 35       -0.059250
      5 C4           0.4380     4.0040    -2.2150 C          1 35       -0.059250
      6 C5           0.1930     4.1220    -0.8420 C          1 35       -0.117100
      7 C6          -1.0460     4.7680    -0.3580 C           1 35        0.716600
      8 O2          -1.6480     5.5440    -1.0910 O           1 35       -0.587500
      9 N1          -1.4310     4.4440     0.9410 N           1 35       -0.494900
     10 C7          -0.4850     4.1550     1.9270 C           1 35        0.716600
     11 O3          -0.6960     4.2400     3.1330 O           1 35       -0.587500
     12 C8           0.8490     3.7030     1.4620 C          1 35       -0.117100
     13 C9           1.8120     3.2850     2.3890 C          1 35       -0.059250
     14 C10          3.0230     2.7590     1.9410 C          1 35       -0.059250
     15 C11          3.2520     2.6100     0.5690 C          1 35       -0.117100
     16 C12          4.5120     2.0040     0.0890 C           1 35        0.716600
     17 O4           5.4900     1.9950     0.8290 O           1 35       -0.587500
     18 N2           4.4910     1.4940    -1.2100 N           1 35       -0.494900
     19 C13          5.6070     0.6250    -1.6580 C          1 35        0.088200
     20 C14          6.8860     1.4540    -1.8930 C          1 35       -0.086400
     21 C15          8.0710     0.5920    -2.3130 C          1 35       -0.083900
     22 C16          8.3250    -0.5260    -1.3100 C          1 35       -0.076900
     23 C17          7.0900    -1.4060    -1.1550 C          1 35       -0.091400
     24 C18          5.8560    -0.5970    -0.7150 C          1 35        0.102200
     25 N3           4.6590    -1.4530    -0.5750 N           1 35       -0.516400
     26 C19          3.7520    -1.3020     0.4400 C           1 35        0.718100
     27 O5           3.7380    -0.5300     1.3780 O           1 35       -0.550500
     28 C20          2.6840    -2.2650     0.2140 C          1 35       -0.126100
     29 C21          1.5550    -2.5140     0.9720 C          1 35       -0.010750
     30 C22          0.7610    -3.5370     0.4910 C          1 35       -0.126850
     31 C23         -0.5000    -4.0490     1.0110 C           1 35        0.718100
     32 O6          -1.1140    -3.4890     1.8990 O           1 35       -0.548250
     33 N4          -0.8280    -5.1430     0.2610 N           1 35       -0.516400
     34 C24          0.0310    -5.2850    -0.8050 C           1 35        0.718100
     35 O7          -0.0100    -6.0870    -1.7170 O           1 35       -0.548250
     36 C25          1.0700    -4.2640    -0.6580 C          1 35       -0.126850
     37 C26          2.1840    -3.9840    -1.4370 C          1 35       -0.010750
     38 C27          2.9810    -2.9530    -0.9610 C          1 35       -0.126100
     39 C28          4.2130    -2.3700    -1.4950 C           1 35        0.718100
     40 O8           4.6730    -2.6750    -2.5770 O           1 35       -0.550500
     41 C29         -2.0650    -5.9220     0.3760 C          1 35        0.105700
     42 C30         -2.4320    -6.2770     1.8210 C          1 35       -0.087400
     43 C31         -3.6000    -7.2580     1.8490 C          1 35       -0.080900
     44 C32         -4.8310    -6.7000     1.1470 C          1 35       -0.080900
     45 C33         -4.5420    -6.1610    -0.2540 C          1 35       -0.087400
     46 C34         -3.2610    -5.3170    -0.4110 C          1 35        0.105700
     47 N5          -3.4620    -3.8720    -0.2160 N           1 35       -0.516400
     48 C35         -4.0710    -3.2380     0.8370 C           1 35        0.718100
     49 O9          -4.6550    -3.6910     1.8000 O           1 35       -0.548250
     50 C36         -3.9230    -1.7960     0.6220 C          1 35       -0.126850
     51 C37         -4.3800    -0.7150     1.3640 C          1 35       -0.010750
     52 C38         -4.0690     0.5290     0.8330 C          1 35       -0.126100
     53 C39         -4.3640     1.8830     1.3140 C           1 35        0.718100
     54 O10         -4.8990     2.1090     2.3810 O           1 35       -0.550500
     55 N6          -3.9010     2.7570     0.3640 N           1 35       -0.516400
     56 C40         -3.2260     2.0930    -0.6260 C           1 35        0.718100
     57 O11         -2.5860     2.5200    -1.5670 O           1 35       -0.550500
     58 C41         -3.3540     0.6710    -0.3540 C          1 35       -0.126100
     59 C42         -2.8730    -0.4000    -1.0830 C          1 35       -0.010750
     60 C43         -3.1890    -1.6350    -0.5500 C          1 35       -0.126850
     61 C44         -2.8440    -2.9600    -1.0350 C           1 35        0.718100
     62 O12         -2.0810    -3.1410    -1.9650 O           1 35       -0.548250
     63 C45         -3.9170     4.2270     0.4540 C          1 35        0.102200
     64 C46         -5.2770     4.7830     0.8980 C          1 35       -0.091400
     65 C47         -5.3370     6.3080     0.7970 C          1 35       -0.076900
     66 C48         -3.9680     6.9870     0.8070 C          1 35       -0.083900
     67 C49         -2.9640     6.2790     1.7110 C          1 35       -0.086400
     68 C50         -2.8000     4.7750     1.3960 C          1 35        0.088200
     69 C51          2.2990     3.0180    -0.3640 C          1 35       -0.012000
     70 C52          1.1020     3.6200     0.0900 C          1 35       -0.012000
     71 H1           1.7440     3.2100    -3.7300 H          1 35        0.176500
     72 H2          -0.2840     4.3880    -2.9340 H          1 35        0.176500
     73 H3           1.6180     3.3540     3.4590 H          1 35        0.176500
     74 H4           3.7700     2.4250     2.6610 H          1 35        0.176500
     75 H5           5.3190     0.2050    -2.6310 H          1 35        0.105700
     76 H6           7.1640     2.0050    -0.9880 H          1 35        0.058700
     77 H7           6.7000     2.2120    -2.6640 H          1 35        0.058700
     78 H8           7.8820     0.1640    -3.3050 H          1 35        0.053450
     79 H9           8.9670     1.2180    -2.4010 H          1 35        0.053450
     80 H10          8.6020    -0.1000    -0.3380 H          1 35        0.047450
     81 H11          9.1710    -1.1360    -1.6460 H          1 35        0.047450
     82 H12          7.2930    -2.1970    -0.4230 H          1 35        0.059450
     83 H13          6.9110    -1.9080    -2.1120 H          1 35        0.059450
     84 H14          6.0810    -0.2300     0.2930 H          1 35        0.111700
     85 H15          1.3210    -1.9630     1.8750 H          1 35        0.185250
     86 H16          2.4150    -4.5320    -2.3430 H          1 35        0.185250
     87 H17         -1.8440    -6.8800    -0.1180 H          1 35        0.085200
     88 H18         -1.5690    -6.7340     2.3210 H          1 35        0.064200
     89 H19         -2.6910    -5.3860     2.4010 H          1 35        0.064200
     90 H20         -3.8500    -7.5040     2.8880 H          1 35        0.051200
     91 H21         -3.3010    -8.1960     1.3670 H          1 35        0.051200
     92 H22         -5.2810    -5.9230     1.7690 H          1 35        0.051200
     93 H23         -5.5910    -7.4880     1.0760 H          1 35        0.051200
     94 H24         -5.4140    -5.6100    -0.6260 H          1 35        0.064200
     95 H25         -4.4350    -7.0360    -0.9110 H          1 35        0.064200
     96 H26         -2.9900    -5.4070    -1.4730 H          1 35        0.085200
     97 H27         -4.9390    -0.8350     2.2850 H          1 35        0.185250
     98 H28         -2.3080    -0.2820    -2.0000 H          1 35        0.185250
     99 H29         -3.7540     4.5830    -0.5690 H          1 35        0.111700
    100 H30         -5.4780     4.5000     1.9380 H          1 35        0.059450
    101 H31         -6.0880     4.3440     0.3020 H          1 35        0.059450
    102 H32         -5.8620     6.5960    -0.1220 H          1 35        0.047450
    103 H33         -5.9450     6.6920     1.6250 H          1 35        0.047450
    104 H34         -3.5770     7.0220    -0.2160 H          1 35        0.053450
    105 H35         -4.0820     8.0310     1.1220 H          1 35        0.053450
    106 H36         -3.3130     6.3790     2.7480 H          1 35        0.058700
    107 H37         -2.0010     6.8020     1.6670 H          1 35        0.058700
    108 H38         -2.9310     4.2530     2.3540 H          1 35        0.105700
@<TRIPOS>BOND
     1     1     2 2   
     2     2     3 1   
     3     2    18 1   
     4     3     4 ar  
     5     3    69 ar  
     6     4     5 ar  
     7     4    71 1   
     8     5     6 ar  
     9     5    72 1   
    10     6     7 1   
    11     6    70 ar  
    12     7     8 2   
    13     7     9 1   
    14     9    10 1   
    15     9    68 1   
    16    10    11 2   
    17    10    12 1   
    18    12    13 ar  
    19    12    70 ar  
    20    13    14 ar  
    21    13    73 1   
    22    14    15 ar  
    23    14    74 1   
    24    15    16 1   
    25    15    69 ar  
    26    16    17 2   
    27    16    18 1   
    28    18    19 1   
    29    19    20 1   
    30    19    24 1   
    31    19    75 1   
    32    20    21 1   
    33    20    76 1   
    34    20    77 1   
    35    21    22 1   
    36    21    78 1   
    37    21    79 1   
    38    22    23 1   
    39    22    80 1   
    40    22    81 1   
    41    23    24 1   
    42    23    82 1   
    43    23    83 1   
    44    24    25 1   
    45    24    84 1   
    46    25    26 1   
    47    25    39 1   
    48    26    27 2   
    49    26    28 1   
    50    28    29 ar  
    51    28    38 ar  
    52    29    30 ar  
    53    29    85 1   
    54    30    31 1   
    55    30    36 ar  
    56    31    32 2   
    57    31    33 1   
    58    33    34 1   
    59    33    41 1   
    60    34    35 2   
    61    34    36 1   
    62    36    37 ar  
    63    37    38 ar  
    64    37    86 1   
    65    38    39 1   
    66    39    40 2   
    67    41    42 1   
    68    41    46 1   
    69    41    87 1   
    70    42    43 1   
    71    42    88 1   
    72    42    89 1   
    73    43    44 1   
    74    43    90 1   
    75    43    91 1   
    76    44    45 1   
    77    44    92 1   
    78    44    93 1   
    79    45    46 1   
    80    45    94 1   
    81    45    95 1   
    82    46    47 1   
    83    46    96 1   
    84    47    48 1   
    85    47    61 1   
    86    48    49 2   
    87    48    50 1   
    88    50    51 ar  
    89    50    60 ar  
    90    51    52 ar  
    91    51    97 1   
    92    52    53 1   
    93    52    58 ar  
    94    53    54 2   
    95    53    55 1   
    96    55    56 1   
    97    55    63 1   
    98    56    57 2   
    99    56    58 1   
   100    58    59 ar  
   101    59    60 ar  
   102    59    98 1   
   103    60    61 1   
   104    61    62 2   
   105    63    64 1   
   106    63    68 1   
   107    63    99 1   
   108    64    65 1   
   109    64   100 1   
   110    64   101 1   
   111    65    66 1   
   112    65   102 1   
   113    65   103 1   
   114    66    67 1   
   115    66   104 1   
   116    66   105 1   
   117    67    68 1   
   118    67   106 1   
   119    67   107 1   
   120    68   108 1   
   121    69    70 ar  
@<TRIPOS>SUBSTRUCTURE
     1 35          1 TEMP              0 ****  ****    0 ROOT
