@<TRIPOS>MOLECULE
100
  108   120     1     0     0
SMALL
bcc


@<TRIPOS>ATOM
      1 O1           7.0980     2.2370     3.0560 O           1 100      -0.574100
      2 C1           6.0530     1.6700     2.7570 C           1 100       0.675700
      3 N1           5.5450     0.6290     3.5330 N           1 100      -0.495100
      4 C2           4.8970    -0.4680     2.9150 C          1 100       0.032600
      5 C3           5.6190    -1.3400     2.1030 C          1 100      -0.099000
      6 C4           4.9330    -2.3210     1.3880 C          1 100      -0.116600
      7 C5           3.5510    -2.4770     1.5460 C          1 100      -0.082000
      8 C6           2.8050    -1.6060     2.3620 C          1 100      -0.032000
      9 C7           3.5100    -0.6130     3.0640 C          1 100      -0.101000
     10 C8           1.3260    -1.6600     2.3590 C          1 100      -0.040000
     11 C9           0.5430    -1.4590     3.5060 C          1 100      -0.116500
     12 C10         -0.8650    -1.4250     3.4350 C          1 100      -0.116500
     13 C11         -1.5330    -1.5990     2.2150 C          1 100      -0.040000
     14 C12         -0.7500    -1.8260     1.0790 C          1 100      -0.116500
     15 C13          0.6420    -1.8500     1.1490 C          1 100      -0.116500
     16 C14         -2.9970    -1.5120     2.0750 C          1 100      -0.032000
     17 C15         -3.7170    -0.3880     2.5180 C          1 100      -0.101000
     18 C16         -5.0960    -0.2650     2.2870 C          1 100       0.032600
     19 C17         -5.7850    -1.2720     1.6170 C          1 100      -0.099000
     20 C18         -5.0670    -2.3650     1.1280 C          1 100      -0.116600
     21 C19         -3.7020    -2.5120     1.3910 C          1 100      -0.082000
     22 C20         -5.6990    -3.3280     0.2020 C           1 100       0.675700
     23 O2          -5.8800    -4.4890     0.5480 O           1 100      -0.574100
     24 N2          -6.0510    -2.8730    -1.0620 N           1 100      -0.495100
     25 C21         -5.3130    -1.8650    -1.7230 C          1 100       0.032600
     26 C22         -5.9590    -0.6710    -2.0280 C          1 100      -0.099000
     27 C23         -5.2160     0.3780    -2.5650 C          1 100      -0.116600
     28 C24         -3.8570     0.2140    -2.8550 C          1 100      -0.082000
     29 C25         -3.1860    -0.9820    -2.5500 C          1 100      -0.032000
     30 C26         -3.9460    -2.0320    -2.0030 C          1 100      -0.101000
     31 C27         -1.7150    -1.0680    -2.6820 C          1 100      -0.040000
     32 C28         -0.9170     0.0000    -2.2450 C          1 100      -0.116500
     33 C29          0.4760    -0.0680    -2.2610 C          1 100      -0.116500
     34 C30          1.1430    -1.2140    -2.7130 C          1 100      -0.040000
     35 C31          0.3560    -2.2760    -3.1810 C          1 100      -0.116500
     36 C32         -1.0500    -2.2030    -3.1690 C          1 100      -0.116500
     37 C33          2.6120    -1.2910    -2.5830 C          1 100      -0.032000
     38 C34          3.2160    -2.3580    -1.8910 C          1 100      -0.101000
     39 C35          4.5780    -2.3340    -1.5760 C          1 100       0.032600
     40 C36          5.3730    -1.2690    -1.9880 C          1 100      -0.099000
     41 C37          4.7870    -0.2160    -2.6970 C          1 100      -0.116600
     42 C38          3.4290    -0.2340    -3.0220 C          1 100      -0.082000
     43 C39          5.6460     0.9260    -3.0730 C           1 100       0.675700
     44 O3           6.1950     0.9160    -4.1690 O           1 100      -0.574100
     45 N3           5.9590     1.8620    -2.1040 N           1 100      -0.495100
     46 C40          5.2970     2.0430    -0.8800 C          1 100       0.032600
     47 C41          6.0230     1.9650     0.3020 C          1 100      -0.099000
     48 C42          5.3360     2.0410     1.5150 C          1 100      -0.116600
     49 C43          3.9710     2.3440     1.5530 C          1 100      -0.082000
     50 C44          3.2340     2.4870     0.3680 C          1 100      -0.032000
     51 C45          3.9200     2.3120    -0.8470 C          1 100      -0.101000
     52 C46          1.7770     2.7140     0.4020 C          1 100      -0.040000
     53 C47          1.1350     3.6620    -0.4080 C          1 100      -0.116500
     54 C48         -0.2670     3.7900    -0.4120 C          1 100      -0.116500
     55 C49         -1.0770     2.9710     0.3890 C          1 100      -0.040000
     56 C50         -0.4230     2.0550     1.2250 C          1 100      -0.116500
     57 C51          0.9670     1.9340     1.2340 C          1 100      -0.116500
     58 C52         -2.5550     2.9710     0.3120 C          1 100      -0.032000
     59 C53         -3.2170     3.0370    -0.9310 C          1 100      -0.101000
     60 C54         -4.5960     2.8260    -1.0290 C          1 100       0.032600
     61 C55         -5.3510     2.5770     0.1120 C          1 100      -0.099000
     62 C56         -4.7100     2.5270     1.3520 C          1 100      -0.116600
     63 C57         -3.3400     2.7650     1.4640 C          1 100      -0.082000
     64 C58         -5.5340     2.1810     2.5280 C           1 100       0.675700
     65 O4          -6.1100     3.0800     3.1300 O           1 100      -0.574100
     66 N4          -5.8070     0.8470     2.7670 N           1 100      -0.495100
     67 N5          -5.2100     2.8340    -2.3060 N           1 100      -0.495100
     68 C59         -5.8690     1.6950    -2.7600 C           1 100       0.675700
     69 O5          -6.9710     1.7690    -3.2920 O           1 100      -0.574100
     70 N6           5.1390    -3.4030    -0.8330 N           1 100      -0.495100
     71 C60          5.6840    -3.1630     0.4240 C           1 100       0.675700
     72 O6           6.7790    -3.6230     0.7320 O           1 100      -0.574100
     73 H1           6.3040     0.3550     4.1530 H          1 100       0.333500
     74 H2           6.6930    -1.2280     1.9760 H          1 100       0.153000
     75 H3           3.0470    -3.2750     1.0040 H          1 100       0.150000
     76 H4           2.9730     0.0980     3.6880 H          1 100       0.146000
     77 H5           1.0160    -1.3210     4.4760 H          1 100       0.141500
     78 H6          -1.4320    -1.2630     4.3500 H          1 100       0.141500
     79 H7          -1.2170    -1.9530     0.1050 H          1 100       0.141500
     80 H8           1.1880    -1.9800     0.2200 H          1 100       0.141500
     81 H9          -3.1950     0.3880     3.0720 H          1 100       0.146000
     82 H10         -6.8470    -1.1840     1.4090 H          1 100       0.153000
     83 H11         -3.1810    -3.3890     1.0110 H          1 100       0.150000
     84 H12         -6.2740    -3.6770    -1.6420 H          1 100       0.333500
     85 H13         -7.0140    -0.5360    -1.8030 H          1 100       0.153000
     86 H14         -3.3090     1.0450    -3.2970 H          1 100       0.150000
     87 H15         -3.4580    -2.9670    -1.7350 H          1 100       0.146000
     88 H16         -1.3710     0.8940    -1.8270 H          1 100       0.141500
     89 H17          1.0350     0.7750    -1.8610 H          1 100       0.141500
     90 H18          0.8290    -3.1830    -3.5530 H          1 100       0.141500
     91 H19         -1.6180    -3.0550    -3.5370 H          1 100       0.141500
     92 H20          2.6090    -3.1930    -1.5450 H          1 100       0.146000
     93 H21          6.4350    -1.2420    -1.7560 H          1 100       0.153000
     94 H22          3.0030     0.5980    -3.5800 H          1 100       0.150000
     95 H23          6.9120     2.2000    -2.1920 H          1 100       0.333500
     96 H24          7.0870     1.7450     0.2960 H          1 100       0.153000
     97 H25          3.4770     2.4400     2.5190 H          1 100       0.150000
     98 H26          3.3750     2.4070    -1.7830 H          1 100       0.146000
     99 H27          1.7200     4.3130    -1.0560 H          1 100       0.141500
    100 H28         -0.7160     4.5360    -1.0650 H          1 100       0.141500
    101 H29         -0.9900     1.3750     1.8560 H          1 100       0.141500
    102 H30          1.4070     1.1800     1.8790 H          1 100       0.141500
    103 H31         -2.6470     3.1930    -1.8450 H          1 100       0.146000
    104 H32         -6.4220     2.4060     0.0480 H          1 100       0.153000
    105 H33         -2.8800     2.7420     2.4490 H          1 100       0.150000
    106 H34         -6.7490     0.7020     3.1150 H          1 100       0.333500
    107 H35         -5.8870     3.5890    -2.4020 H          1 100       0.333500
    108 H36          5.8830    -3.8710    -1.3480 H          1 100       0.333500
@<TRIPOS>BOND
     1     1     2 2   
     2     2     3 1   
     3     2    48 1   
     4     3     4 1   
     5     3    73 1   
     6     4     5 ar  
     7     4     9 ar  
     8     5     6 ar  
     9     5    74 1   
    10     6     7 ar  
    11     6    71 1   
    12     7     8 ar  
    13     7    75 1   
    14     8     9 ar  
    15     8    10 1   
    16     9    76 1   
    17    10    11 ar  
    18    10    15 ar  
    19    11    12 ar  
    20    11    77 1   
    21    12    13 ar  
    22    12    78 1   
    23    13    14 ar  
    24    13    16 1   
    25    14    15 ar  
    26    14    79 1   
    27    15    80 1   
    28    16    17 ar  
    29    16    21 ar  
    30    17    18 ar  
    31    17    81 1   
    32    18    19 ar  
    33    18    66 1   
    34    19    20 ar  
    35    19    82 1   
    36    20    21 ar  
    37    20    22 1   
    38    21    83 1   
    39    22    23 2   
    40    22    24 1   
    41    24    25 1   
    42    24    84 1   
    43    25    26 ar  
    44    25    30 ar  
    45    26    27 ar  
    46    26    85 1   
    47    27    28 ar  
    48    27    68 1   
    49    28    29 ar  
    50    28    86 1   
    51    29    30 ar  
    52    29    31 1   
    53    30    87 1   
    54    31    32 ar  
    55    31    36 ar  
    56    32    33 ar  
    57    32    88 1   
    58    33    34 ar  
    59    33    89 1   
    60    34    35 ar  
    61    34    37 1   
    62    35    36 ar  
    63    35    90 1   
    64    36    91 1   
    65    37    38 ar  
    66    37    42 ar  
    67    38    39 ar  
    68    38    92 1   
    69    39    40 ar  
    70    39    70 1   
    71    40    41 ar  
    72    40    93 1   
    73    41    42 ar  
    74    41    43 1   
    75    42    94 1   
    76    43    44 2   
    77    43    45 1   
    78    45    46 1   
    79    45    95 1   
    80    46    47 ar  
    81    46    51 ar  
    82    47    48 ar  
    83    47    96 1   
    84    48    49 ar  
    85    49    50 ar  
    86    49    97 1   
    87    50    51 ar  
    88    50    52 1   
    89    51    98 1   
    90    52    53 ar  
    91    52    57 ar  
    92    53    54 ar  
    93    53    99 1   
    94    54    55 ar  
    95    54   100 1   
    96    55    56 ar  
    97    55    58 1   
    98    56    57 ar  
    99    56   101 1   
   100    57   102 1   
   101    58    59 ar  
   102    58    63 ar  
   103    59    60 ar  
   104    59   103 1   
   105    60    61 ar  
   106    60    67 1   
   107    61    62 ar  
   108    61   104 1   
   109    62    63 ar  
   110    62    64 1   
   111    63   105 1   
   112    64    65 2   
   113    64    66 1   
   114    66   106 1   
   115    67    68 1   
   116    67   107 1   
   117    68    69 2   
   118    70    71 1   
   119    70   108 1   
   120    71    72 2   
@<TRIPOS>SUBSTRUCTURE
     1 100         1 TEMP              0 ****  ****    0 ROOT
