@<TRIPOS>MOLECULE
URE
   95    99     1     0     0
SMALL
bcc


@<TRIPOS>ATOM
      1 C            8.5130    -2.6600    -2.4020 C          0 URE      -0.218100
      2 C1           7.7410    -2.1000    -1.2350 C           0 URE       0.579100
      3 O            8.1250    -1.0970    -0.6830 O           0 URE      -0.552100
      4 C2           6.4900    -2.7910    -0.7590 C          0 URE      -0.196400
      5 C3           5.9040    -2.0240     0.4290 C          0 URE       0.101500
      6 S            5.3180    -0.3990    -0.1320 S          0 URE      -0.279200
      7 C4           6.2650     0.6850     0.9730 C          0 URE      -0.022800
      8 C5           6.6190     1.9910     0.2500 C          0 URE      -0.027300
      9 N            5.6830     3.0510     0.6850 N           0 URE      -0.506400
     10 C6           5.1550     3.8200    -0.3130 C           0 URE       0.661700
     11 O1           5.7090     3.8960    -1.3920 O           0 URE      -0.657100
     12 C7           3.9060     4.5540    -0.0600 C          0 URE      -0.121600
     13 C8           3.1110     4.9520    -1.1330 C          0 URE      -0.081500
     14 C9           1.8250     5.4620    -0.9030 C          0 URE      -0.041000
     15 C10          0.9640     5.8290    -1.9560 C          0 URE      -0.136000
     16 C11         -0.3610     6.0500    -1.7230 C          0 URE      -0.094000
     17 C12         -0.8820     5.9720    -0.4180 C          0 URE      -0.122100
     18 C13         -0.0050     5.8430     0.6630 C          0 URE      -0.090500
     19 C14          1.3530     5.5830     0.4340 C          0 URE      -0.038500
     20 C15          2.2690     5.4010     1.4890 C          0 URE      -0.124500
     21 C16          3.5100     4.8850     1.2550 C          0 URE      -0.111500
     22 C17         -2.3290     5.8650    -0.1640 C           0 URE       0.660700
     23 O2          -2.7940     6.2160     0.9020 O           0 URE      -0.640100
     24 N1          -3.1410     5.3660    -1.1390 N           0 URE      -0.501900
     25 C18         -4.5240     5.0270    -0.7620 C          0 URE      -0.040800
     26 C19         -4.7520     3.5380    -1.0330 C          0 URE       0.013700
     27 S1          -6.1000     2.9120     0.0240 S          0 URE      -0.226100
     28 S2          -6.4700     1.1180    -0.8830 S          0 URE      -0.226100
     29 C20         -6.9970     0.1450     0.5480 C          0 URE       0.013700
     30 C21         -7.5760    -1.2000     0.0930 C          0 URE      -0.040800
     31 N2          -6.5930    -2.2660     0.3780 N           0 URE      -0.501900
     32 C22         -6.5410    -3.2900    -0.5250 C           0 URE       0.660700
     33 O3          -7.4610    -3.4830    -1.2960 O           0 URE      -0.640100
     34 C23         -5.3460    -4.1560    -0.5460 C          0 URE      -0.122100
     35 C24         -4.4220    -4.0700     0.4960 C          0 URE      -0.090500
     36 C25         -3.1960    -4.7450     0.4060 C          0 URE      -0.038500
     37 C26         -2.2560    -4.7300     1.4540 C          0 URE      -0.124500
     38 C27         -0.9860    -5.1550     1.2370 C          0 URE      -0.111500
     39 C28         -0.5950    -5.6360    -0.0240 C          0 URE      -0.121600
     40 C29         -1.5590    -5.8760    -1.0030 C          0 URE      -0.081500
     41 C30         -2.8800    -5.4530    -0.7880 C          0 URE      -0.041000
     42 C31         -3.9100    -5.6870    -1.7190 C          0 URE      -0.136000
     43 C32         -5.1100    -5.0580    -1.6040 C          0 URE      -0.094000
     44 C33          0.8360    -5.7250    -0.3790 C           0 URE       0.661700
     45 O4           1.2590    -6.6060    -1.1020 O           0 URE      -0.657100
     46 N3           1.6650    -4.7680     0.1450 N           0 URE      -0.506400
     47 C34          3.1050    -4.9250    -0.1410 C          0 URE      -0.027300
     48 C35          3.7210    -3.5460    -0.3800 C          0 URE      -0.022800
     49 S3           4.5260    -2.9660     1.1340 S          0 URE      -0.279200
     50 C36          3.7820    -5.5830     1.0330 C           0 URE       0.910100
     51 O5           3.1320    -5.8930     2.0170 O           0 URE      -0.836300
     52 O6           4.9810    -5.8040     1.0000 O           0 URE      -0.836300
     53 C37         -8.8530    -1.4790     0.8420 C           0 URE       0.905600
     54 O7          -9.9200    -1.1000     0.3900 O           0 URE      -0.836800
     55 O8          -8.8200    -2.0840     1.9010 O           0 URE      -0.836800
     56 C38         -4.7340     5.3130     0.7030 C           0 URE       0.905600
     57 O9          -5.4340     6.2500     1.0480 O           0 URE      -0.836800
     58 O10         -4.2030     4.6070     1.5440 O           0 URE      -0.836800
     59 C39          8.0300     2.3920     0.5950 C           0 URE       0.910100
     60 O11          8.9590     2.0010    -0.0900 O           0 URE      -0.836300
     61 O12          8.2420     3.1080     1.5590 O           0 URE      -0.836300
     62 H            9.3810    -2.0300    -2.6000 H          0 URE       0.064033
     63 H1           8.8440    -3.6710    -2.1670 H          0 URE       0.064033
     64 H2           7.8730    -2.6830    -3.2840 H          0 URE       0.064033
     65 H3           5.7600    -2.8200    -1.5680 H          0 URE       0.100700
     66 H4           6.7310    -3.8080    -0.4510 H          0 URE       0.100700
     67 H5           6.6750    -1.8880     1.1880 H          0 URE       0.100700
     68 H6           5.6690     0.9110     1.8570 H          0 URE       0.070700
     69 H7           7.1820     0.1800     1.2760 H          0 URE       0.070700
     70 H8           6.5320     1.8470    -0.8270 H          0 URE       0.071700
     71 H9           5.4580     3.1910     1.6190 H          0 URE       0.326500
     72 H10          3.4860     4.8680    -2.1430 H          0 URE       0.144500
     73 H11          1.3570     5.9370    -2.9560 H          0 URE       0.124000
     74 H12         -1.0170     6.2860    -2.5470 H          0 URE       0.144500
     75 H13         -0.3740     5.9450     1.6730 H          0 URE       0.153500
     76 H14          1.9850     5.6730     2.4950 H          0 URE       0.136000
     77 H15          4.1910     4.7290     2.0780 H          0 URE       0.153000
     78 H16         -2.8200     5.2410    -2.0460 H          0 URE       0.316000
     79 H17         -5.2210     5.6180    -1.3560 H          0 URE       0.089700
     80 H18         -5.0180     3.3980    -2.0800 H          0 URE       0.076950
     81 H19         -3.8360     2.9870    -0.8160 H          0 URE       0.076950
     82 H20         -6.1410    -0.0320     1.1990 H          0 URE       0.076950
     83 H21         -7.7590     0.6980     1.0990 H          0 URE       0.076950
     84 H22         -7.7780    -1.1670    -0.9770 H          0 URE       0.089700
     85 H23         -6.0180    -2.2400     1.1590 H          0 URE       0.316000
     86 H24         -4.6520    -3.4840     1.3740 H          0 URE       0.153500
     87 H25         -2.5470    -4.3800     2.4340 H          0 URE       0.136000
     88 H26         -0.2660    -5.1220     2.0420 H          0 URE       0.153000
     89 H27         -1.2910    -6.3830    -1.9190 H          0 URE       0.144500
     90 H28         -3.7450    -6.3750    -2.5350 H          0 URE       0.124000
     91 H29         -5.8880    -5.2510    -2.3290 H          0 URE       0.144500
     92 H30          1.3250    -4.0290     0.6740 H          0 URE       0.326500
     93 H31          3.2340    -5.5410    -1.0300 H          0 URE       0.071700
     94 H32          4.4570    -3.6120    -1.1820 H          0 URE       0.070700
     95 H33          2.9380    -2.8420    -0.6650 H          0 URE       0.070700
@<TRIPOS>BOND
     1     1     2 1   
     2     1    62 1   
     3     1    63 1   
     4     1    64 1   
     5     2     3 2   
     6     2     4 1   
     7     4     5 1   
     8     4    65 1   
     9     4    66 1   
    10     5     6 1   
    11     5    49 1   
    12     5    67 1   
    13     6     7 1   
    14     7     8 1   
    15     7    68 1   
    16     7    69 1   
    17     8     9 1   
    18     8    59 1   
    19     8    70 1   
    20     9    10 1   
    21     9    71 1   
    22    10    11 2   
    23    10    12 1   
    24    12    13 ar  
    25    12    21 ar  
    26    13    14 ar  
    27    13    72 1   
    28    14    15 ar  
    29    14    19 ar  
    30    15    16 ar  
    31    15    73 1   
    32    16    17 ar  
    33    16    74 1   
    34    17    18 ar  
    35    17    22 1   
    36    18    19 ar  
    37    18    75 1   
    38    19    20 ar  
    39    20    21 ar  
    40    20    76 1   
    41    21    77 1   
    42    22    23 2   
    43    22    24 1   
    44    24    25 1   
    45    24    78 1   
    46    25    26 1   
    47    25    56 1   
    48    25    79 1   
    49    26    27 1   
    50    26    80 1   
    51    26    81 1   
    52    27    28 1   
    53    28    29 1   
    54    29    30 1   
    55    29    82 1   
    56    29    83 1   
    57    30    31 1   
    58    30    53 1   
    59    30    84 1   
    60    31    32 1   
    61    31    85 1   
    62    32    33 2   
    63    32    34 1   
    64    34    35 ar  
    65    34    43 ar  
    66    35    36 ar  
    67    35    86 1   
    68    36    37 ar  
    69    36    41 ar  
    70    37    38 ar  
    71    37    87 1   
    72    38    39 ar  
    73    38    88 1   
    74    39    40 ar  
    75    39    44 1   
    76    40    41 ar  
    77    40    89 1   
    78    41    42 ar  
    79    42    43 ar  
    80    42    90 1   
    81    43    91 1   
    82    44    45 2   
    83    44    46 1   
    84    46    47 1   
    85    46    92 1   
    86    47    48 1   
    87    47    50 1   
    88    47    93 1   
    89    48    49 1   
    90    48    94 1   
    91    48    95 1   
    92    50    51 1   
    93    50    52 1   
    94    53    54 1   
    95    53    55 1   
    96    56    57 1   
    97    56    58 1   
    98    59    60 1   
    99    59    61 1   
@<TRIPOS>SUBSTRUCTURE
     1 URE         1 TEMP              0 ****  ****    0 ROOT
