@<TRIPOS>MOLECULE
105
   90    96     1     0     0
SMALL
bcc


@<TRIPOS>ATOM
      1 H            2.4370    -9.0990    -0.2220 H          0 105       0.137000
      2 C            1.7820    -8.2420    -0.2730 C          0 105      -0.123167
      3 C1           2.3180    -6.9720    -0.3220 C          0 105      -0.134833
      4 C2           1.4780    -5.8620    -0.3840 C          0 105       0.144400
      5 C3           0.0780    -6.0480    -0.4090 C          0 105       0.144400
      6 C4          -0.4430    -7.3430    -0.3600 C          0 105      -0.134833
      7 C5           0.4070    -8.4280    -0.2940 C          0 105      -0.123167
      8 H1          -0.0010    -9.4270    -0.2500 H          0 105       0.137000
      9 N           -0.7760    -4.9800    -0.4780 N          0 105      -0.619600
     10 C6          -1.9960    -5.1140    -0.0260 C          0 105       0.525133
     11 C7          -2.9510    -4.0000    -0.0600 C          0 105      -0.205567
     12 C8          -2.8140    -2.9720    -1.0020 C          0 105       0.112433
     13 O           -1.8520    -3.0500    -1.9590 O          0 105      -0.494433
     14 C9          -3.6610    -1.8740    -0.9590 C          0 105       0.112433
     15 O1          -3.5240    -0.8750    -1.8690 O          0 105      -0.494433
     16 C10         -4.6570    -1.7960     0.0240 C          0 105      -0.205567
     17 C11         -5.4900    -0.5990     0.1670 C          0 105       0.525133
     18 N1          -4.9920     0.5940    -0.0930 N          0 105      -0.619600
     19 C12         -5.8390     1.6690     0.0590 C          0 105       0.144400
     20 C13         -5.3030     2.9730     0.1180 C          0 105       0.144400
     21 C14         -6.1550     4.0600     0.2870 C          0 105      -0.134833
     22 C15         -7.5160     3.8600     0.3860 C          0 105      -0.123167
     23 H2          -8.1750     4.7050     0.5190 H          0 105       0.137000
     24 C16         -8.0440     2.5790     0.3140 C          0 105      -0.123167
     25 H3          -9.1120     2.4350     0.3860 H          0 105       0.137000
     26 C17         -7.2170     1.4870     0.1510 C          0 105      -0.134833
     27 N2          -3.9530     3.1610     0.0010 N          0 105      -0.619600
     28 C18         -3.4180     4.3040     0.2930 C          0 105       0.525133
     29 C19         -1.9850     4.5530     0.1470 C          0 105      -0.205567
     30 C20         -1.4370     4.9560    -1.0710 C          0 105       0.112433
     31 O2          -2.2490     5.2120    -2.1300 O          0 105      -0.494433
     32 C21         -0.0650     5.0960    -1.2020 C          0 105       0.112433
     33 O3           0.4660     5.4890    -2.3900 O          0 105      -0.494433
     34 C22          0.7760     4.8340    -0.1140 C          0 105      -0.205567
     35 C23          2.2300     4.9380    -0.2540 C          0 105       0.525133
     36 N3           3.0360     4.0010     0.1830 N          0 105      -0.619600
     37 C24          4.3880     4.2200     0.0850 C          0 105       0.144400
     38 C25          4.9150     5.5070     0.0170 C          0 105      -0.134833
     39 C26          6.2840     5.6890    -0.0280 C          0 105      -0.123167
     40 H4           6.6930     6.6880    -0.0690 H          0 105       0.137000
     41 C27          7.1360     4.5950    -0.0190 C          0 105      -0.123167
     42 H5           8.2040     4.7500    -0.0400 H          0 105       0.137000
     43 C28          6.6350     3.3100     0.0160 C          0 105      -0.134833
     44 C29          5.2580     3.1060     0.0400 C          0 105       0.144400
     45 N4           4.7420     1.8380     0.0130 N          0 105      -0.619600
     46 C30          5.5100     0.8150     0.2790 C          0 105       0.525133
     47 C31          4.9570    -0.5500     0.2050 C          0 105      -0.205567
     48 C32          3.7810    -0.7680    -0.5270 C          0 105       0.112433
     49 O4           3.1810     0.2690    -1.1690 O          0 105      -0.494433
     50 C33          3.2290    -2.0390    -0.5990 C          0 105       0.112433
     51 O5           2.0910    -2.2500    -1.3110 O          0 105      -0.494433
     52 C34          3.8510    -3.1060     0.0670 C          0 105      -0.205567
     53 C35          3.2450    -4.4450     0.0230 C          0 105       0.525133
     54 N5           1.9940    -4.5890    -0.3720 N          0 105      -0.619600
     55 C36          5.0500    -2.8960     0.7690 C          0 105       0.112433
     56 O6           5.6710    -3.9400     1.3780 O          0 105      -0.494433
     57 C37          5.6010    -1.6250     0.8410 C          0 105       0.112433
     58 O7           6.7580    -1.4210     1.5230 O          0 105      -0.494433
     59 C38          0.2220     4.4960     1.1390 C          0 105       0.112433
     60 O8           1.0310     4.3040     2.2140 O          0 105      -0.494433
     61 C39         -1.1490     4.3600     1.2680 C          0 105       0.112433
     62 O9          -1.6900     4.0400     2.4730 O          0 105      -0.494433
     63 C40         -4.8410    -2.8620     0.9250 C          0 105       0.112433
     64 O10         -5.8520    -2.8200     1.8320 O          0 105      -0.494433
     65 C41         -3.9910    -3.9550     0.8860 C          0 105       0.112433
     66 O11         -4.1620    -4.9810     1.7600 O          0 105      -0.494433
     67 H6           3.3890    -6.8370    -0.3120 H          0 105       0.139833
     68 H7          -1.5120    -7.4960    -0.3790 H          0 105       0.139833
     69 H8          -2.3080    -6.0650     0.3800 H          0 105       0.005467
     70 H9          -2.2470    -3.5010    -2.7170 H          0 105       0.447750
     71 H10         -4.0880    -1.1030    -2.6210 H          0 105       0.447750
     72 H11         -6.5170    -0.6940     0.4850 H          0 105       0.005467
     73 H12         -5.7500     5.0600     0.3430 H          0 105       0.139833
     74 H13         -7.6360     0.4930     0.0930 H          0 105       0.139833
     75 H14         -4.0520     5.1000     0.6550 H          0 105       0.005467
     76 H15         -2.4810     6.1500    -2.0840 H          0 105       0.447750
     77 H16          0.5100     6.4540    -2.3700 H          0 105       0.447750
     78 H17          2.6500     5.8110    -0.7320 H          0 105       0.005467
     79 H18          4.2550     6.3620    -0.0020 H          0 105       0.139833
     80 H19          7.3080     2.4660     0.0230 H          0 105       0.139833
     81 H20          6.5440     0.9670     0.5500 H          0 105       0.005467
     82 H21          3.5610     0.3050    -2.0580 H          0 105       0.447750
     83 H22          2.3620    -2.4700    -2.2130 H          0 105       0.447750
     84 H23          3.8250    -5.3110     0.3080 H          0 105       0.005467
     85 H24          6.2800    -4.3200     0.7300 H          0 105       0.447750
     86 H25          7.4800    -1.5450     0.8930 H          0 105       0.447750
     87 H26          1.1290     5.1630     2.6470 H          0 105       0.447750
     88 H27         -1.8710     4.8740     2.9280 H          0 105       0.447750
     89 H28         -6.6220    -3.2270     1.4110 H          0 105       0.447750
     90 H29         -4.7620    -5.6110     1.3380 H          0 105       0.447750
@<TRIPOS>BOND
     1     1     2 1   
     2     2     3 ar  
     3     2     7 ar  
     4     3     4 ar  
     5     3    67 1   
     6     4     5 ar  
     7     4    54 1   
     8     5     6 ar  
     9     5     9 1   
    10     6     7 ar  
    11     6    68 1   
    12     7     8 1   
    13     9    10 2   
    14    10    11 1   
    15    10    69 1   
    16    11    12 ar  
    17    11    65 ar  
    18    12    13 1   
    19    12    14 ar  
    20    13    70 1   
    21    14    15 1   
    22    14    16 ar  
    23    15    71 1   
    24    16    17 1   
    25    16    63 ar  
    26    17    18 2   
    27    17    72 1   
    28    18    19 1   
    29    19    20 ar  
    30    19    26 ar  
    31    20    21 ar  
    32    20    27 1   
    33    21    22 ar  
    34    21    73 1   
    35    22    23 1   
    36    22    24 ar  
    37    24    25 1   
    38    24    26 ar  
    39    26    74 1   
    40    27    28 2   
    41    28    29 1   
    42    28    75 1   
    43    29    30 ar  
    44    29    61 ar  
    45    30    31 1   
    46    30    32 ar  
    47    31    76 1   
    48    32    33 1   
    49    32    34 ar  
    50    33    77 1   
    51    34    35 1   
    52    34    59 ar  
    53    35    36 2   
    54    35    78 1   
    55    36    37 1   
    56    37    38 ar  
    57    37    44 ar  
    58    38    39 ar  
    59    38    79 1   
    60    39    40 1   
    61    39    41 ar  
    62    41    42 1   
    63    41    43 ar  
    64    43    44 ar  
    65    43    80 1   
    66    44    45 1   
    67    45    46 2   
    68    46    47 1   
    69    46    81 1   
    70    47    48 ar  
    71    47    57 ar  
    72    48    49 1   
    73    48    50 ar  
    74    49    82 1   
    75    50    51 1   
    76    50    52 ar  
    77    51    83 1   
    78    52    53 1   
    79    52    55 ar  
    80    53    54 2   
    81    53    84 1   
    82    55    56 1   
    83    55    57 ar  
    84    56    85 1   
    85    57    58 1   
    86    58    86 1   
    87    59    60 1   
    88    59    61 ar  
    89    60    87 1   
    90    61    62 1   
    91    62    88 1   
    92    63    64 1   
    93    63    65 ar  
    94    64    89 1   
    95    65    66 1   
    96    66    90 1   
@<TRIPOS>SUBSTRUCTURE
     1 105         1 TEMP              0 ****  ****    0 ROOT
