@<TRIPOS>MOLECULE
161
   90    95     1     0     0
SMALL
bcc


@<TRIPOS>ATOM
      1 O           -6.3380     5.6690    -0.9820 O           0 161      -0.526100
      2 C           -5.6140     5.0700    -0.2160 C           0 161       0.583700
      3 C1          -4.6070     5.8350     0.6150 C          0 161       0.033400
      4 O1          -3.4550     6.0730    -0.1980 O          0 161      -0.419100
      5 C2          -2.3130     6.1510     0.6540 C          0 161       0.125400
      6 C3          -1.0550     6.2850    -0.2080 C          0 161       0.127400
      7 O2           0.1140     6.0810     0.5850 O          0 161      -0.431600
      8 C4           1.2360     6.1340    -0.3010 C          0 161       0.128400
      9 C5           2.5120     5.7510     0.4530 C          0 161       0.128400
     10 O3           3.4720     5.2130    -0.4610 O          0 161      -0.431600
     11 C6           4.4600     4.5400     0.3190 C          0 161       0.127400
     12 C7           5.6260     4.1040    -0.5740 C          0 161       0.125400
     13 O4           6.6710     3.5740     0.2380 O          0 161      -0.419100
     14 C8           7.5210     2.7590    -0.5790 C          0 161       0.033400
     15 C9           7.8650     1.5170     0.2110 C           0 161       0.583700
     16 O5           8.8230     1.5250     0.9560 O           0 161      -0.526100
     17 C10          7.0560     0.3030     0.0820 C          0 161      -0.175600
     18 C11          6.1690     0.1380    -0.9870 C          0 161      -0.074500
     19 C12          5.3900    -0.9800    -1.0690 C          0 161      -0.143000
     20 C13          5.4570    -1.9560    -0.0710 C          0 161       0.004000
     21 C14          6.3680    -1.8180     0.9770 C          0 161      -0.143000
     22 C15          7.1600    -0.7080     1.0550 C          0 161      -0.074500
     23 C16          4.5370    -3.1100    -0.1320 C          0 161      -0.080000
     24 C17          3.9860    -3.5090    -1.3490 C          0 161      -0.084500
     25 C18          3.0890    -4.5530    -1.3950 C          0 161      -0.175500
     26 C19          2.7040    -5.1990    -0.2290 C          0 161       0.125100
     27 O6           1.7730    -6.1850    -0.2640 O          0 161      -0.327900
     28 C20          0.7600    -5.8210    -1.1950 C          0 161       0.171700
     29 C21         -0.5890    -5.6630    -0.5410 C          0 161      -0.119300
     30 C22         -1.6560    -5.2710    -1.3380 C          0 161      -0.115500
     31 C23         -2.9100    -5.1020    -0.7850 C          0 161      -0.115500
     32 C24         -3.1020    -5.3220     0.5620 C          0 161      -0.119300
     33 C25         -4.4550    -5.1380     1.1990 C          0 161       0.171700
     34 O7          -5.4490    -4.7680     0.2490 O          0 161      -0.327900
     35 C26         -5.5540    -3.4150     0.2060 C          0 161       0.125100
     36 C27         -5.5860    -2.6630     1.3690 C          0 161      -0.175500
     37 C28         -5.6600    -1.2860     1.3040 C          0 161      -0.084500
     38 C29         -5.7350    -0.6420     0.0700 C          0 161      -0.080000
     39 C30         -5.7550    -1.4060    -1.0990 C          0 161      -0.084500
     40 C31         -5.6590    -2.7800    -1.0290 C          0 161      -0.175500
     41 C32         -5.7330     0.8400    -0.0020 C          0 161       0.004000
     42 C33         -5.2550     1.5830     1.0830 C          0 161      -0.143000
     43 C34         -5.2190     2.9430     1.0190 C          0 161      -0.074500
     44 C35         -5.6810     3.6100    -0.1210 C          0 161      -0.175600
     45 C36         -6.1930     2.8680    -1.1970 C          0 161      -0.074500
     46 C37         -6.2180     1.4980    -1.1330 C          0 161      -0.143000
     47 C38         -2.0410    -5.7200     1.3570 C          0 161      -0.115500
     48 C39         -0.7840    -5.8910     0.8030 C          0 161      -0.115500
     49 C40          3.2790    -4.8280     0.9820 C          0 161      -0.175500
     50 C41          4.1900    -3.7980     1.0360 C          0 161      -0.084500
     51 H           -5.0360     6.7880     0.9230 H          0 161       0.054700
     52 H1          -4.3330     5.2520     1.4910 H          0 161       0.054700
     53 H2          -2.4000     7.0210     1.3040 H          0 161       0.048700
     54 H3          -2.2440     5.2470     1.2580 H          0 161       0.048700
     55 H4          -1.0830     5.5400    -1.0030 H          0 161       0.047700
     56 H5          -1.0250     7.2810    -0.6490 H          0 161       0.047700
     57 H6           1.0800     5.4360    -1.1240 H          0 161       0.041700
     58 H7           1.3350     7.1440    -0.6960 H          0 161       0.041700
     59 H8           2.9290     6.6360     0.9330 H          0 161       0.041700
     60 H9           2.2730     5.0050     1.2110 H          0 161       0.041700
     61 H10          4.8310     5.2120     1.0930 H          0 161       0.047700
     62 H11          4.0140     3.6620     0.7860 H          0 161       0.047700
     63 H12          5.2830     3.3420    -1.2720 H          0 161       0.048700
     64 H13          5.9960     4.9690    -1.1260 H          0 161       0.048700
     65 H14          7.0140     2.4890    -1.5010 H          0 161       0.054700
     66 H15          8.4320     3.3120    -0.8100 H          0 161       0.054700
     67 H16          6.0970     0.8970    -1.7530 H          0 161       0.154500
     68 H17          4.7230    -1.1050    -1.9110 H          0 161       0.139500
     69 H18          6.4540    -2.5920     1.7270 H          0 161       0.139500
     70 H19          7.8680    -0.6060     1.8650 H          0 161       0.154500
     71 H20          4.2640    -3.0030    -2.2620 H          0 161       0.139000
     72 H21          2.7020    -4.8740    -2.3520 H          0 161       0.148000
     73 H22          1.0100    -4.8750    -1.6760 H          0 161       0.066700
     74 H23          0.6880    -6.5950    -1.9630 H          0 161       0.066700
     75 H24         -1.4990    -5.0990    -2.3920 H          0 161       0.142000
     76 H25         -3.7360    -4.7980    -1.4100 H          0 161       0.142000
     77 H26         -4.7490    -6.0860     1.6650 H          0 161       0.066700
     78 H27         -4.3750    -4.3920     1.9860 H          0 161       0.066700
     79 H28         -5.5710    -3.1430     2.3370 H          0 161       0.148000
     80 H29         -5.6610    -0.7090     2.2170 H          0 161       0.139000
     81 H30         -5.8410    -0.9220    -2.0620 H          0 161       0.139000
     82 H31         -5.6640    -3.3710    -1.9340 H          0 161       0.148000
     83 H32         -4.9110     1.0820     1.9760 H          0 161       0.139500
     84 H33         -4.8270     3.5070     1.8530 H          0 161       0.154500
     85 H34         -6.5720     3.3740    -2.0720 H          0 161       0.154500
     86 H35         -6.6080     0.9310    -1.9650 H          0 161       0.139500
     87 H36         -2.1960    -5.8940     2.4110 H          0 161       0.142000
     88 H37          0.0370    -6.2020     1.4310 H          0 161       0.142000
     89 H38          3.0140    -5.3600     1.8850 H          0 161       0.148000
     90 H39          4.6330    -3.5120     1.9790 H          0 161       0.139000
@<TRIPOS>BOND
     1     1     2 2   
     2     2     3 1   
     3     2    44 1   
     4     3     4 1   
     5     3    51 1   
     6     3    52 1   
     7     4     5 1   
     8     5     6 1   
     9     5    53 1   
    10     5    54 1   
    11     6     7 1   
    12     6    55 1   
    13     6    56 1   
    14     7     8 1   
    15     8     9 1   
    16     8    57 1   
    17     8    58 1   
    18     9    10 1   
    19     9    59 1   
    20     9    60 1   
    21    10    11 1   
    22    11    12 1   
    23    11    61 1   
    24    11    62 1   
    25    12    13 1   
    26    12    63 1   
    27    12    64 1   
    28    13    14 1   
    29    14    15 1   
    30    14    65 1   
    31    14    66 1   
    32    15    16 2   
    33    15    17 1   
    34    17    18 ar  
    35    17    22 ar  
    36    18    19 ar  
    37    18    67 1   
    38    19    20 ar  
    39    19    68 1   
    40    20    21 ar  
    41    20    23 1   
    42    21    22 ar  
    43    21    69 1   
    44    22    70 1   
    45    23    24 ar  
    46    23    50 ar  
    47    24    25 ar  
    48    24    71 1   
    49    25    26 ar  
    50    25    72 1   
    51    26    27 1   
    52    26    49 ar  
    53    27    28 1   
    54    28    29 1   
    55    28    73 1   
    56    28    74 1   
    57    29    30 ar  
    58    29    48 ar  
    59    30    31 ar  
    60    30    75 1   
    61    31    32 ar  
    62    31    76 1   
    63    32    33 1   
    64    32    47 ar  
    65    33    34 1   
    66    33    77 1   
    67    33    78 1   
    68    34    35 1   
    69    35    36 ar  
    70    35    40 ar  
    71    36    37 ar  
    72    36    79 1   
    73    37    38 ar  
    74    37    80 1   
    75    38    39 ar  
    76    38    41 1   
    77    39    40 ar  
    78    39    81 1   
    79    40    82 1   
    80    41    42 ar  
    81    41    46 ar  
    82    42    43 ar  
    83    42    83 1   
    84    43    44 ar  
    85    43    84 1   
    86    44    45 ar  
    87    45    46 ar  
    88    45    85 1   
    89    46    86 1   
    90    47    48 ar  
    91    47    87 1   
    92    48    88 1   
    93    49    50 ar  
    94    49    89 1   
    95    50    90 1   
@<TRIPOS>SUBSTRUCTURE
     1 161         1 TEMP              0 ****  ****    0 ROOT
