@<TRIPOS>MOLECULE
28
   76    84     1     0     0
SMALL
bcc


@<TRIPOS>ATOM
      1 C1          -6.0200    -1.1180    -2.9340 C          1 28       -0.005400
      2 N1          -5.7120    -0.8270    -1.5420 N          1 28        0.173400
      3 N2          -5.9670     0.4090    -1.1220 N          1 28       -0.246100
      4 N3          -5.5360     0.3760     0.1260 N          1 28        0.146400
      5 C2          -5.1050    -0.8700     0.5520 C          1 28       -0.104800
      6 C3          -5.1140    -1.6550    -0.5740 C          1 28       -0.115600
      7 C4          -4.5220    -2.9910    -0.8040 C          1 28        0.148800
      8 N4          -3.0630    -2.8660    -0.8120 N           1 28       -0.505400
      9 C5          -2.4720    -2.3590    -1.9670 C           1 28        0.725350
     10 O1          -3.1360    -2.0240    -2.9450 O           1 28       -0.595750
     11 C6          -1.0040    -2.1520    -1.9420 C          1 28       -0.115600
     12 C7          -0.3500    -1.6900    -3.0900 C          1 28       -0.043500
     13 C8           1.0240    -1.4470    -3.0590 C          1 28       -0.043500
     14 C9           1.7480    -1.6720    -1.8820 C          1 28       -0.115600
     15 C10          3.1960    -1.3560    -1.8370 C           1 28        0.725350
     16 O2           3.7320    -0.7580    -2.7670 O           1 28       -0.595750
     17 N5           3.8850    -1.6880    -0.6750 N           1 28       -0.505400
     18 C11          5.3030    -1.3270    -0.6040 C          1 28        0.148800
     19 C12          5.4150     0.0820    -0.1680 C          1 28       -0.115600
     20 C13          5.2420     0.6290     1.0790 C          1 28       -0.104800
     21 N6           5.1430     1.9930     0.8630 N          1 28        0.146400
     22 C14          4.6230     2.9880     1.8270 C          1 28        0.091600
     23 C15          3.1140     2.8910     1.7800 C          1 28       -0.154800
     24 C16          2.4290     1.9450     2.5550 C          1 28       -0.096500
     25 C17          1.0440     1.7870     2.4310 C          1 28       -0.113500
     26 C18          0.2940     2.5710     1.5380 C          1 28       -0.014500
     27 C19          0.9890     3.5340     0.7860 C          1 28       -0.113500
     28 C20          2.3760     3.6880     0.8970 C          1 28       -0.096500
     29 C21         -1.1630     2.3770     1.3820 C          1 28       -0.014500
     30 C22         -2.0020     2.1810     2.4930 C          1 28       -0.113500
     31 C23         -3.3780     1.9620     2.3430 C          1 28       -0.096500
     32 C24         -3.9600     1.9380     1.0710 C          1 28       -0.154800
     33 C25         -3.1380     2.1610    -0.0420 C          1 28       -0.096500
     34 C26         -1.7630     2.3700     0.1120 C          1 28       -0.113500
     35 C27         -5.4330     1.6390     0.8920 C          1 28        0.091600
     36 N7           5.4140     2.3710    -0.3740 N          1 28       -0.246100
     37 N8           5.5910     1.2080    -0.9930 N          1 28        0.173400
     38 C28          5.8790     1.2640    -2.4180 C          1 28       -0.005400
     39 C29          3.2690    -2.0910     0.5090 C           1 28        0.725350
     40 O3           3.8680    -2.1480     1.5780 O           1 28       -0.595750
     41 C30          1.8160    -2.3700     0.4580 C          1 28       -0.115600
     42 C31          1.1610    -2.8170     1.6110 C          1 28       -0.043500
     43 C32         -0.2150    -3.0370     1.5870 C          1 28       -0.043500
     44 C33         -0.9360    -2.8190     0.4080 C          1 28       -0.115600
     45 C34         -2.4040    -3.0030     0.4070 C           1 28        0.725350
     46 O4          -3.0000    -3.1960     1.4610 O           1 28       -0.595750
     47 C35         -0.2910    -2.3860    -0.7590 C          1 28       -0.004000
     48 C36          1.1080    -2.1490    -0.7300 C          1 28       -0.004000
     49 H1          -7.0100    -0.7170    -3.1750 H          1 28        0.114533
     50 H2          -5.2740    -0.6420    -3.5760 H          1 28        0.114533
     51 H3          -6.0360    -2.1940    -3.1150 H          1 28        0.114533
     52 H4          -4.7460    -0.9960     1.5610 H          1 28        0.251500
     53 H5          -4.8490    -3.6720    -0.0110 H          1 28        0.126200
     54 H6          -4.8550    -3.4090    -1.7570 H          1 28        0.126200
     55 H7          -0.9030    -1.5080    -4.0110 H          1 28        0.188750
     56 H8           1.5220    -1.0770    -3.9550 H          1 28        0.188750
     57 H9           5.8210    -1.9700     0.1170 H          1 28        0.126200
     58 H10          5.7770    -1.4730    -1.5780 H          1 28        0.126200
     59 H11          5.0540     0.2280     2.0610 H          1 28        0.251500
     60 H12          4.9730     3.9890     1.5530 H          1 28        0.118200
     61 H13          5.0080     2.7550     2.8260 H          1 28        0.118200
     62 H14          2.9680     1.3130     3.2580 H          1 28        0.149750
     63 H15          0.5540     1.0290     3.0400 H          1 28        0.154500
     64 H16          0.4490     4.1910     0.1050 H          1 28        0.154500
     65 H17          2.8740     4.4380     0.2840 H          1 28        0.149750
     66 H18         -1.5910     2.2110     3.5020 H          1 28        0.154500
     67 H19         -3.9840     1.8110     3.2350 H          1 28        0.149750
     68 H20         -3.5640     2.1630    -1.0430 H          1 28        0.149750
     69 H21         -1.1600     2.5220    -0.7810 H          1 28        0.154500
     70 H22         -5.9270     2.4530     0.3500 H          1 28        0.118200
     71 H23         -5.9440     1.4980     1.8510 H          1 28        0.118200
     72 H24          6.6370     2.0320    -2.6020 H          1 28        0.114533
     73 H25          4.9670     1.5240    -2.9600 H          1 28        0.114533
     74 H26          6.2700     0.3100    -2.7750 H          1 28        0.114533
     75 H27          1.7130    -2.9870     2.5360 H          1 28        0.188750
     76 H28         -0.7190    -3.3740     2.4930 H          1 28        0.188750
@<TRIPOS>BOND
     1     1     2 1   
     2     1    49 1   
     3     1    50 1   
     4     1    51 1   
     5     2     3 2   
     6     2     6 1   
     7     3     4 1   
     8     4     5 1   
     9     4    35 1   
    10     5     6 2   
    11     5    52 1   
    12     6     7 1   
    13     7     8 1   
    14     7    53 1   
    15     7    54 1   
    16     8     9 1   
    17     8    45 1   
    18     9    10 2   
    19     9    11 1   
    20    11    12 ar  
    21    11    47 ar  
    22    12    13 ar  
    23    12    55 1   
    24    13    14 ar  
    25    13    56 1   
    26    14    15 1   
    27    14    48 ar  
    28    15    16 2   
    29    15    17 1   
    30    17    18 1   
    31    17    39 1   
    32    18    19 1   
    33    18    57 1   
    34    18    58 1   
    35    19    20 2   
    36    19    37 1   
    37    20    21 1   
    38    20    59 1   
    39    21    22 1   
    40    21    36 2   
    41    22    23 1   
    42    22    60 1   
    43    22    61 1   
    44    23    24 ar  
    45    23    28 ar  
    46    24    25 ar  
    47    24    62 1   
    48    25    26 ar  
    49    25    63 1   
    50    26    27 ar  
    51    26    29 1   
    52    27    28 ar  
    53    27    64 1   
    54    28    65 1   
    55    29    30 ar  
    56    29    34 ar  
    57    30    31 ar  
    58    30    66 1   
    59    31    32 ar  
    60    31    67 1   
    61    32    33 ar  
    62    32    35 1   
    63    33    34 ar  
    64    33    68 1   
    65    34    69 1   
    66    35    70 1   
    67    35    71 1   
    68    36    37 1   
    69    37    38 1   
    70    38    72 1   
    71    38    73 1   
    72    38    74 1   
    73    39    40 2   
    74    39    41 1   
    75    41    42 ar  
    76    41    48 ar  
    77    42    43 ar  
    78    42    75 1   
    79    43    44 ar  
    80    43    76 1   
    81    44    45 1   
    82    44    47 ar  
    83    45    46 2   
    84    47    48 ar  
@<TRIPOS>SUBSTRUCTURE
     1 28          1 TEMP              0 ****  ****    0 ROOT
