@<TRIPOS>MOLECULE
ASB
  106   112     1     0     0
SMALL
bcc


@<TRIPOS>ATOM
      1 C           -7.1400     3.3130     0.1480 C          0 ASB      -0.104300
      2 C1          -6.7950     1.8470     0.1040 C          0 ASB       0.096900
      3 C2          -5.4670     1.4590    -0.0970 C          0 ASB      -0.176100
      4 C3          -5.1670     0.0880    -0.1110 C          0 ASB       0.019000
      5 C4          -6.2080    -0.8200     0.0500 C          0 ASB      -0.176100
      6 C5          -7.5090    -0.3490     0.2350 C          0 ASB       0.096900
      7 C6          -8.6430    -1.3260     0.4120 C          0 ASB      -0.104300
      8 N           -7.7500     0.9490     0.2610 N          0 ASB       0.006400
      9 C7          -9.1270     1.4090     0.4600 C          0 ASB      -0.038900
     10 C8          -5.8900    -2.2630    -0.0070 C           0 ASB       0.663700
     11 O           -6.7910    -3.0780    -0.0520 O           0 ASB      -0.559600
     12 N1          -4.5930    -2.6860    -0.0090 N           0 ASB      -0.546900
     13 C9          -4.1850    -3.6420    -1.0530 C          0 ASB       0.126800
     14 C10         -3.4640    -4.8330    -0.4790 C          0 ASB      -0.130300
     15 C11         -2.0880    -4.9300    -0.5440 C          0 ASB      -0.105000
     16 C12         -1.4410    -6.0600    -0.0670 C          0 ASB      -0.038500
     17 C13         -2.1940    -7.1020     0.4870 C          0 ASB      -0.101500
     18 C14         -3.5650    -6.9770     0.5820 C          0 ASB      -0.122000
     19 C15         -4.2060    -5.8480     0.1110 C          0 ASB      -0.112000
     20 C16          0.0440    -6.1650    -0.0800 C          0 ASB      -0.038500
     21 C17          0.6870    -7.3320    -0.4830 C          0 ASB      -0.101500
     22 C18          2.0690    -7.3790    -0.5120 C          0 ASB      -0.122000
     23 C19          2.8130    -6.2870    -0.1030 C          0 ASB      -0.112000
     24 C20          2.1770    -5.1480     0.3580 C          0 ASB      -0.130300
     25 C21          2.9730    -3.9970     0.9090 C          0 ASB       0.126800
     26 N2           3.7350    -3.2610    -0.1260 N           0 ASB      -0.546900
     27 C22          4.9830    -2.9050     0.2170 C           0 ASB       0.663700
     28 O1           5.5980    -3.7870     0.7840 O           0 ASB      -0.559600
     29 C23          5.7540    -1.6790     0.0510 C          0 ASB      -0.176100
     30 C24          5.1670    -0.4160     0.0330 C          0 ASB       0.019000
     31 C25          5.9880     0.7050    -0.0520 C          0 ASB      -0.176100
     32 C26          7.3770     0.5140    -0.1820 C          0 ASB       0.096900
     33 C27          8.2840     1.7130    -0.2930 C          0 ASB      -0.104300
     34 N3           7.8950    -0.6940    -0.2070 N          0 ASB       0.006400
     35 C28          9.3440    -0.8420    -0.3630 C          0 ASB      -0.038900
     36 C29          7.1520    -1.7720    -0.0980 C          0 ASB       0.096900
     37 C30          7.8050    -3.1290    -0.1310 C          0 ASB      -0.104300
     38 C31          5.4700     2.0700     0.0350 C           0 ASB       0.663700
     39 O2           6.3290     2.9270     0.1190 O           0 ASB      -0.559600
     40 N4           4.2120     2.5440     0.0390 N           0 ASB      -0.546900
     41 C32          3.8980     3.5660     1.0630 C          0 ASB       0.126800
     42 C33          3.2520     4.7940     0.4840 C          0 ASB      -0.130300
     43 C34          1.8820     4.9540     0.5400 C          0 ASB      -0.105000
     44 C35          1.2890     6.1150     0.0720 C          0 ASB      -0.038500
     45 C36          2.0910     7.1310    -0.4700 C          0 ASB      -0.101500
     46 C37          3.4560     6.9440    -0.5560 C          0 ASB      -0.122000
     47 C38          4.0400     5.7810    -0.0910 C          0 ASB      -0.112000
     48 C39         -0.1910     6.2980     0.0860 C          0 ASB      -0.038500
     49 C40         -0.7550     7.4820     0.5500 C          0 ASB      -0.101500
     50 C41         -2.1300     7.6230     0.5820 C          0 ASB      -0.122000
     51 C42         -2.9440     6.6050     0.1170 C          0 ASB      -0.112000
     52 C43         -2.3860     5.4450    -0.3970 C          0 ASB      -0.130300
     53 C44         -3.2590     4.3820    -1.0010 C          0 ASB       0.126800
     54 N5          -4.1630     3.6880    -0.0520 N           0 ASB      -0.546900
     55 C45         -4.3660     2.3860    -0.3310 C           0 ASB       0.663700
     56 O3          -3.4240     1.8710    -0.9010 O           0 ASB      -0.559600
     57 C46         -1.0150     5.2860    -0.4010 C          0 ASB      -0.105000
     58 C47          0.8020    -5.0750     0.3550 C          0 ASB      -0.105000
     59 H           -7.3790     3.6610    -0.8570 H          0 ASB       0.104283
     60 H1          -8.0010     3.4640     0.7990 H          0 ASB       0.104283
     61 H2          -6.2900     3.8750     0.5340 H          0 ASB       0.104283
     62 H3          -4.1510    -0.2550    -0.2440 H          0 ASB       0.191500
     63 H4          -8.6810    -1.6540     1.4500 H          0 ASB       0.104283
     64 H5          -9.5840    -0.8420     0.1490 H          0 ASB       0.104283
     65 H6          -8.4840    -2.1880    -0.2360 H          0 ASB       0.104283
     66 H7          -9.3560     1.4200     1.5250 H          0 ASB       0.102367
     67 H8          -9.2360     2.4150     0.0540 H          0 ASB       0.102367
     68 H9          -9.8130     0.7350    -0.0530 H          0 ASB       0.102367
     69 H10         -3.9600    -2.3680     0.6540 H          0 ASB       0.315000
     70 H11         -5.0720    -3.9870    -1.5830 H          0 ASB       0.084200
     71 H12         -3.5260    -3.1360    -1.7590 H          0 ASB       0.084200
     72 H13         -1.5120    -4.1210    -0.9690 H          0 ASB       0.137500
     73 H14         -1.7040    -7.9980     0.8380 H          0 ASB       0.145500
     74 H15         -4.1440    -7.7720     1.0290 H          0 ASB       0.149000
     75 H16         -5.2780    -5.7550     0.2020 H          0 ASB       0.137500
     76 H17          0.1090    -8.1980    -0.7710 H          0 ASB       0.145500
     77 H18          2.5700    -8.2720    -0.8560 H          0 ASB       0.149000
     78 H19          3.8920    -6.3230    -0.1430 H          0 ASB       0.137500
     79 H20          2.2910    -3.3040     1.4000 H          0 ASB       0.084200
     80 H21          3.6730    -4.3800     1.6520 H          0 ASB       0.084200
     81 H22          3.3570    -3.0510    -0.9940 H          0 ASB       0.315000
     82 H23          4.0930    -0.3080     0.0850 H          0 ASB       0.191500
     83 H24          8.4950     2.1020     0.7030 H          0 ASB       0.104283
     84 H25          9.2170     1.4190    -0.7740 H          0 ASB       0.104283
     85 H26          7.7950     2.4840    -0.8880 H          0 ASB       0.104283
     86 H27          9.8210    -0.7940     0.6160 H          0 ASB       0.102367
     87 H28          9.5630    -1.8040    -0.8270 H          0 ASB       0.102367
     88 H29          9.7260    -0.0390    -0.9930 H          0 ASB       0.102367
     89 H30          8.1140    -3.4090     0.8760 H          0 ASB       0.104283
     90 H31          7.0960    -3.8650    -0.5110 H          0 ASB       0.104283
     91 H32          8.6790    -3.0960    -0.7820 H          0 ASB       0.104283
     92 H33          3.5470     2.2330    -0.5940 H          0 ASB       0.315000
     93 H34          3.2250     3.1290     1.8000 H          0 ASB       0.084200
     94 H35          4.8220     3.8570     1.5630 H          0 ASB       0.084200
     95 H36          1.2670     4.1670     0.9510 H          0 ASB       0.137500
     96 H37          1.6440     8.0510    -0.8160 H          0 ASB       0.145500
     97 H38          4.0730     7.7150    -0.9930 H          0 ASB       0.149000
     98 H39          5.1080     5.6410    -0.1740 H          0 ASB       0.137500
     99 H40         -0.1200     8.2890     0.8860 H          0 ASB       0.145500
    100 H41         -2.5690     8.5300     0.9700 H          0 ASB       0.149000
    101 H42         -4.0170     6.7150     0.1560 H          0 ASB       0.137500
    102 H43         -3.8670     4.8410    -1.7810 H          0 ASB       0.084200
    103 H44         -2.6160     3.6370    -1.4680 H          0 ASB       0.084200
    104 H45         -4.5750     4.1360     0.7040 H          0 ASB       0.315000
    105 H46         -0.5800     4.3730    -0.7810 H          0 ASB       0.137500
    106 H47          0.3090    -4.1740     0.6890 H          0 ASB       0.137500
@<TRIPOS>BOND
     1     1     2 1   
     2     1    59 1   
     3     1    60 1   
     4     1    61 1   
     5     2     3 ar  
     6     2     8 2   
     7     3     4 ar  
     8     3    55 1   
     9     4     5 ar  
    10     4    62 1   
    11     5     6 ar  
    12     5    10 1   
    13     6     7 1   
    14     6     8 1   
    15     7    63 1   
    16     7    64 1   
    17     7    65 1   
    18     8     9 1   
    19     9    66 1   
    20     9    67 1   
    21     9    68 1   
    22    10    11 2   
    23    10    12 1   
    24    12    13 1   
    25    12    69 1   
    26    13    14 1   
    27    13    70 1   
    28    13    71 1   
    29    14    15 ar  
    30    14    19 ar  
    31    15    16 ar  
    32    15    72 1   
    33    16    17 ar  
    34    16    20 1   
    35    17    18 ar  
    36    17    73 1   
    37    18    19 ar  
    38    18    74 1   
    39    19    75 1   
    40    20    21 ar  
    41    20    58 ar  
    42    21    22 ar  
    43    21    76 1   
    44    22    23 ar  
    45    22    77 1   
    46    23    24 ar  
    47    23    78 1   
    48    24    25 1   
    49    24    58 ar  
    50    25    26 1   
    51    25    79 1   
    52    25    80 1   
    53    26    27 1   
    54    26    81 1   
    55    27    28 2   
    56    27    29 1   
    57    29    30 ar  
    58    29    36 ar  
    59    30    31 ar  
    60    30    82 1   
    61    31    32 ar  
    62    31    38 1   
    63    32    33 1   
    64    32    34 2   
    65    33    83 1   
    66    33    84 1   
    67    33    85 1   
    68    34    35 1   
    69    34    36 1   
    70    35    86 1   
    71    35    87 1   
    72    35    88 1   
    73    36    37 1   
    74    37    89 1   
    75    37    90 1   
    76    37    91 1   
    77    38    39 2   
    78    38    40 1   
    79    40    41 1   
    80    40    92 1   
    81    41    42 1   
    82    41    93 1   
    83    41    94 1   
    84    42    43 ar  
    85    42    47 ar  
    86    43    44 ar  
    87    43    95 1   
    88    44    45 ar  
    89    44    48 1   
    90    45    46 ar  
    91    45    96 1   
    92    46    47 ar  
    93    46    97 1   
    94    47    98 1   
    95    48    49 ar  
    96    48    57 ar  
    97    49    50 ar  
    98    49    99 1   
    99    50    51 ar  
   100    50   100 1   
   101    51    52 ar  
   102    51   101 1   
   103    52    53 1   
   104    52    57 ar  
   105    53    54 1   
   106    53   102 1   
   107    53   103 1   
   108    54    55 1   
   109    54   104 1   
   110    55    56 2   
   111    57   105 1   
   112    58   106 1   
@<TRIPOS>SUBSTRUCTURE
     1 ASB         1 TEMP              0 ****  ****    0 ROOT
