@<TRIPOS>MOLECULE
ASB
  118   126     1     0     0
SMALL
bcc


@<TRIPOS>ATOM
      1 C1          -0.4370     4.2660     2.9080 C          1 ASB       0.105700
      2 O1           0.1270     5.4840     2.4130 O          1 ASB      -0.350900
      3 C2           0.4320     5.3910     1.0770 C          1 ASB       0.128100
      4 C3          -0.5290     5.7650     0.1180 C          1 ASB      -0.131050
      5 C4          -0.1540     5.7440    -1.2350 C          1 ASB      -0.102250
      6 C5           1.1370     5.3630    -1.6260 C          1 ASB      -0.057800
      7 C6           1.5370     5.4280    -3.0740 C          1 ASB      -0.069300
      8 C7           2.0850     5.0380    -0.6470 C          1 ASB      -0.102250
      9 C8           1.7510     5.0400     0.7160 C          1 ASB      -0.131050
     10 C9           2.7910     4.8180     1.7940 C          1 ASB       0.129800
     11 N1           3.9630     4.0450     1.3850 N           1 ASB      -0.513900
     12 C10          3.9200     2.6720     1.3140 C           1 ASB       0.654700
     13 O2           2.8950     2.0060     1.4390 O           1 ASB      -0.562600
     14 C11          5.1800     1.9110     1.0570 C          1 ASB       0.008850
     15 C12          6.2830     2.4640     0.4180 C          1 ASB      -0.136750
     16 C13          7.3710     1.6500     0.1310 C          1 ASB       0.027750
     17 C14          7.2790     0.2690     0.3280 C          1 ASB      -0.024250
     18 C15          8.3590    -0.5700     0.0390 C          1 ASB      -0.065000
     19 C16          8.2580    -1.9490     0.2260 C          1 ASB      -0.065000
     20 C17          7.0370    -2.5340     0.5750 C          1 ASB      -0.024250
     21 C18          6.9320    -3.9200     0.7200 C          1 ASB       0.027750
     22 C19          5.7070    -4.4940     1.0260 C          1 ASB      -0.136750
     23 C20          4.5790    -3.6870     1.0510 C          1 ASB       0.008850
     24 C21          3.2400    -4.2100     1.4320 C           1 ASB       0.654700
     25 O3           2.5230    -3.4410     2.0630 O           1 ASB      -0.562600
     26 N2           2.8790    -5.4730     1.0280 N           1 ASB      -0.513900
     27 C22          1.5910    -6.0420     1.4130 C          1 ASB       0.129800
     28 C23          0.4570    -5.6440     0.4930 C          1 ASB      -0.131050
     29 C24          0.6140    -5.7080    -0.9000 C          1 ASB      -0.102250
     30 C25         -0.4370    -5.3730    -1.7660 C          1 ASB      -0.057800
     31 C26         -0.2670    -5.5210    -3.2520 C          1 ASB      -0.069300
     32 C27         -1.6730    -4.9790    -1.2340 C          1 ASB      -0.102250
     33 C28         -1.8730    -4.9020     0.1520 C          1 ASB      -0.131050
     34 C29         -3.2050    -4.5140     0.7560 C          1 ASB       0.129800
     35 N3          -4.1130    -3.7760    -0.1190 N           1 ASB      -0.513900
     36 C30         -4.0150    -2.4110    -0.2550 C           1 ASB       0.654700
     37 O4          -3.0860    -1.7340     0.1760 O           1 ASB      -0.562600
     38 C31         -5.0990    -1.6650    -0.9600 C          1 ASB       0.008850
     39 C32         -5.8990    -2.2350    -1.9430 C          1 ASB      -0.136750
     40 C33         -6.8200    -1.4330    -2.6050 C          1 ASB       0.027750
     41 C34         -6.8180    -0.0500    -2.3990 C          1 ASB      -0.024250
     42 C35         -7.7350     0.7760    -3.0550 C          1 ASB      -0.065000
     43 C36         -7.7210     2.1570    -2.8510 C          1 ASB      -0.065000
     44 C37         -6.7070     2.7570    -2.0960 C          1 ASB      -0.024250
     45 C38         -6.6740     4.1440    -1.9270 C          1 ASB       0.027750
     46 C39         -5.6400     4.7310    -1.2110 C          1 ASB      -0.136750
     47 C40         -4.5850     3.9360    -0.7900 C          1 ASB       0.008850
     48 C41         -3.4630     4.4720     0.0260 C           1 ASB       0.654700
     49 O5          -3.0050     3.7150     0.8770 O           1 ASB      -0.562600
     50 N4          -2.9810     5.7260    -0.2540 N           1 ASB      -0.513900
     51 C42         -1.8850     6.3050     0.5190 C          1 ASB       0.129800
     52 N5          -4.5710     2.5900    -1.0490 N          1 ASB       0.041150
     53 C43         -3.2250     1.9420    -1.1780 C          1 ASB      -0.044150
     54 C44         -5.6970     1.9470    -1.5120 C          1 ASB       0.002200
     55 C45         -5.8730     0.5260    -1.5110 C          1 ASB       0.002200
     56 N6          -5.2160    -0.3320    -0.6630 N          1 ASB       0.041150
     57 C46         -5.0130     0.0670     0.7730 C          1 ASB      -0.044150
     58 C47         -0.8090    -5.2870     0.9970 C          1 ASB       0.128100
     59 O6          -1.0150    -5.2590     2.3570 O          1 ASB      -0.350900
     60 C48         -1.4120    -6.5500     2.8400 C          1 ASB       0.105700
     61 N7           4.6710    -2.3420     0.8070 N          1 ASB       0.041150
     62 C49          3.4590    -1.6790     0.2230 C          1 ASB      -0.044150
     63 C50          5.8940    -1.7110     0.7670 C          1 ASB       0.002200
     64 C51          6.0750    -0.2910     0.8270 C          1 ASB       0.002200
     65 N8           5.1710     0.5800     1.3850 N          1 ASB       0.041150
     66 C52          4.4770     0.1980     2.6640 C          1 ASB      -0.044150
     67 H1          -0.2660     3.4050     2.2500 H          1 ASB       0.054200
     68 H2          -1.5110     4.4030     3.0630 H          1 ASB       0.054200
     69 H3           0.0200     4.0530     3.8780 H          1 ASB       0.054200
     70 H4          -0.8550     6.0830    -1.9960 H          1 ASB       0.138750
     71 H5           1.9150     6.4270    -3.3130 H          1 ASB       0.063533
     72 H6           2.3160     4.6910    -3.2950 H          1 ASB       0.063533
     73 H7           0.6840     5.2050    -3.7240 H          1 ASB       0.063533
     74 H8           3.1050     4.8270    -0.9580 H          1 ASB       0.138750
     75 H9           2.3540     4.2920     2.6500 H          1 ASB       0.103075
     76 H10          3.1560     5.7920     2.1370 H          1 ASB       0.103075
     77 H11          4.8290     4.5700     1.3660 H          1 ASB       0.337500
     78 H12          6.3280     3.5180     0.1520 H          1 ASB       0.219250
     79 H13          8.2710     2.0950    -0.3000 H          1 ASB       0.218500
     80 H14          9.3130    -0.1600    -0.3040 H          1 ASB       0.209500
     81 H15          9.1440    -2.5630     0.0440 H          1 ASB       0.209500
     82 H16          7.8120    -4.5610     0.6310 H          1 ASB       0.218500
     83 H17          5.6500    -5.5620     1.2290 H          1 ASB       0.219250
     84 H18          3.4840    -6.0750     0.4820 H          1 ASB       0.337500
     85 H19          1.3970    -5.7340     2.4460 H          1 ASB       0.103075
     86 H20          1.6980    -7.1320     1.3990 H          1 ASB       0.103075
     87 H21          1.5540    -6.0560    -1.3250 H          1 ASB       0.138750
     88 H22         -0.5450    -6.5330    -3.5610 H          1 ASB       0.063533
     89 H23         -0.8930    -4.8010    -3.7900 H          1 ASB       0.063533
     90 H24          0.7710    -5.3320    -3.5470 H          1 ASB       0.063533
     91 H25         -2.4900    -4.7590    -1.9170 H          1 ASB       0.138750
     92 H26         -3.7370    -5.4250     1.0530 H          1 ASB       0.103075
     93 H27         -3.0460    -3.8980     1.6490 H          1 ASB       0.103075
     94 H28         -4.9270    -4.2970    -0.4240 H          1 ASB       0.337500
     95 H29         -5.8360    -3.2910    -2.1950 H          1 ASB       0.219250
     96 H30         -7.5060    -1.8910    -3.3230 H          1 ASB       0.218500
     97 H31         -8.5020     0.3560    -3.7100 H          1 ASB       0.209500
     98 H32         -8.4920     2.7610    -3.3360 H          1 ASB       0.209500
     99 H33         -7.4730     4.7770    -2.3220 H          1 ASB       0.218500
    100 H34         -5.6670     5.8000    -1.0060 H          1 ASB       0.219250
    101 H35         -3.3700     6.3210    -0.9760 H          1 ASB       0.337500
    102 H36         -2.1040     6.1320     1.5760 H          1 ASB       0.103075
    103 H37         -1.9010     7.3880     0.3520 H          1 ASB       0.103075
    104 H38         -2.5330     2.6570    -1.6330 H          1 ASB       0.110783
    105 H39         -3.2950     1.0880    -1.8560 H          1 ASB       0.110783
    106 H40         -2.8720     1.6230    -0.2000 H          1 ASB       0.110783
    107 H41         -5.6320     0.9400     0.9930 H          1 ASB       0.110783
    108 H42         -5.3520    -0.7520     1.4140 H          1 ASB       0.110783
    109 H43         -3.9650     0.2950     0.9510 H          1 ASB       0.110783
    110 H44         -1.6280    -6.4520     3.9080 H          1 ASB       0.054200
    111 H45         -2.3200    -6.9030     2.3400 H          1 ASB       0.054200
    112 H46         -0.6090    -7.2830     2.7220 H          1 ASB       0.054200
    113 H47          2.9550    -2.3890    -0.4410 H          1 ASB       0.110783
    114 H48          3.7680    -0.8300    -0.3900 H          1 ASB       0.110783
    115 H49          2.7960    -1.3510     1.0200 H          1 ASB       0.110783
    116 H50          4.9750    -0.6760     3.0930 H          1 ASB       0.110783
    117 H51          4.5790     1.0230     3.3750 H          1 ASB       0.110783
    118 H52          3.4310    -0.0240     2.4690 H          1 ASB       0.110783
@<TRIPOS>BOND
     1     1     2 1   
     2     1    67 1   
     3     1    68 1   
     4     1    69 1   
     5     2     3 1   
     6     3     4 ar  
     7     3     9 ar  
     8     4     5 ar  
     9     4    51 1   
    10     5     6 ar  
    11     5    70 1   
    12     6     7 1   
    13     6     8 ar  
    14     7    71 1   
    15     7    72 1   
    16     7    73 1   
    17     8     9 ar  
    18     8    74 1   
    19     9    10 1   
    20    10    11 1   
    21    10    75 1   
    22    10    76 1   
    23    11    12 1   
    24    11    77 1   
    25    12    13 2   
    26    12    14 1   
    27    14    15 2   
    28    14    65 1   
    29    15    16 1   
    30    15    78 1   
    31    16    17 2   
    32    16    79 1   
    33    17    18 ar  
    34    17    64 ar  
    35    18    19 ar  
    36    18    80 1   
    37    19    20 ar  
    38    19    81 1   
    39    20    21 2   
    40    20    63 ar  
    41    21    22 1   
    42    21    82 1   
    43    22    23 2   
    44    22    83 1   
    45    23    24 1   
    46    23    61 1   
    47    24    25 2   
    48    24    26 1   
    49    26    27 1   
    50    26    84 1   
    51    27    28 1   
    52    27    85 1   
    53    27    86 1   
    54    28    29 ar  
    55    28    58 ar  
    56    29    30 ar  
    57    29    87 1   
    58    30    31 1   
    59    30    32 ar  
    60    31    88 1   
    61    31    89 1   
    62    31    90 1   
    63    32    33 ar  
    64    32    91 1   
    65    33    34 1   
    66    33    58 ar  
    67    34    35 1   
    68    34    92 1   
    69    34    93 1   
    70    35    36 1   
    71    35    94 1   
    72    36    37 2   
    73    36    38 1   
    74    38    39 2   
    75    38    56 1   
    76    39    40 1   
    77    39    95 1   
    78    40    41 2   
    79    40    96 1   
    80    41    42 ar  
    81    41    55 ar  
    82    42    43 ar  
    83    42    97 1   
    84    43    44 ar  
    85    43    98 1   
    86    44    45 2   
    87    44    54 ar  
    88    45    46 1   
    89    45    99 1   
    90    46    47 2   
    91    46   100 1   
    92    47    48 1   
    93    47    52 1   
    94    48    49 2   
    95    48    50 1   
    96    50    51 1   
    97    50   101 1   
    98    51   102 1   
    99    51   103 1   
   100    52    53 1   
   101    52    54 1   
   102    53   104 1   
   103    53   105 1   
   104    53   106 1   
   105    54    55 ar  
   106    55    56 1   
   107    56    57 1   
   108    57   107 1   
   109    57   108 1   
   110    57   109 1   
   111    58    59 1   
   112    59    60 1   
   113    60   110 1   
   114    60   111 1   
   115    60   112 1   
   116    61    62 1   
   117    61    63 1   
   118    62   113 1   
   119    62   114 1   
   120    62   115 1   
   121    63    64 ar  
   122    64    65 1   
   123    65    66 1   
   124    66   116 1   
   125    66   117 1   
   126    66   118 1   
@<TRIPOS>SUBSTRUCTURE
     1 ASB         1 TEMP              0 ****  ****    0 ROOT
