@<TRIPOS>MOLECULE
ASB
  122   128     1     0     0
SMALL
bcc


@<TRIPOS>ATOM
      1 C1          -1.6880    -4.4400    -3.6040 C          1 ASB       0.103700
      2 O1          -2.3640    -3.8770    -2.4760 O          1 ASB      -0.488600
      3 C2          -3.5040    -3.1250    -2.9270 C          1 ASB       0.170700
      4 C3          -4.2450    -2.6360    -1.7090 C          1 ASB      -0.098300
      5 C4          -3.9440    -1.3880    -1.1360 C          1 ASB      -0.097000
      6 C5          -4.6230    -0.9320     0.0040 C          1 ASB      -0.123300
      7 C6          -4.4090     0.4540     0.5810 C          1 ASB       0.130800
      8 N1          -3.1350     1.0850     0.2490 N           1 ASB      -0.541400
      9 C7          -2.9930     2.4410     0.4830 C           1 ASB       0.659700
     10 O2          -3.8900     3.1620     0.8970 O           1 ASB      -0.527600
     11 C8          -1.6700     3.0700     0.2540 C          1 ASB      -0.117600
     12 C9          -0.6650     2.4870    -0.5040 C          1 ASB       0.000500
     13 C10          0.5400     3.1650    -0.6570 C          1 ASB      -0.114000
     14 C11          0.7400     4.4340    -0.0750 C          1 ASB      -0.006300
     15 C12          2.0550     5.0880    -0.1590 C          1 ASB      -0.006300
     16 C13          2.9590     5.0370     0.9210 C          1 ASB      -0.114000
     17 C14          4.2810     5.4350     0.7540 C          1 ASB       0.000500
     18 C15          4.6940     5.8360    -0.5050 C          1 ASB      -0.117600
     19 C16          3.7670     5.9630    -1.5340 C          1 ASB       0.036200
     20 N2           2.4680     5.6040    -1.3580 N          1 ASB       0.056400
     21 C17          1.5580     5.7860    -2.5160 C          1 ASB      -0.045900
     22 C18          6.0830     6.1270    -0.8700 C           1 ASB       0.659700
     23 O3           6.2810     7.1740    -1.4730 O           1 ASB      -0.527600
     24 N3           7.0690     5.1990    -0.6880 N           1 ASB      -0.541400
     25 C19          7.1000     3.9740     0.1030 C          1 ASB       0.130800
     26 C20          6.0650     2.9260    -0.2560 C          1 ASB      -0.123300
     27 C21          5.6160     2.7690    -1.5750 C          1 ASB      -0.097000
     28 C22          4.6000     1.8550    -1.8930 C          1 ASB      -0.098300
     29 C23          4.0910     1.7610    -3.3090 C          1 ASB       0.170700
     30 O4           2.8710     2.5170    -3.3890 O          1 ASB      -0.488600
     31 C24          2.3730     2.4780    -4.7300 C          1 ASB       0.103700
     32 C25          4.0480     1.0510    -0.8800 C          1 ASB      -0.097000
     33 C26          4.5180     1.1260     0.4380 C          1 ASB      -0.123300
     34 C27          3.9680     0.2870     1.5720 C          1 ASB       0.130800
     35 N4           2.9920    -0.7350     1.2050 N           1 ASB      -0.541400
     36 C28          2.2130    -1.2600     2.2200 C           1 ASB       0.659700
     37 O5           2.1680    -0.8130     3.3590 O           1 ASB      -0.527600
     38 C29          1.3170    -2.3960     1.9220 C          1 ASB      -0.117600
     39 C30          0.7080    -2.5570     0.6860 C          1 ASB       0.000500
     40 C31         -0.3440    -3.4630     0.5780 C          1 ASB      -0.114000
     41 C32         -0.7650    -4.2310     1.6880 C          1 ASB      -0.006300
     42 C33         -2.0660    -4.9250     1.6620 C          1 ASB      -0.006300
     43 C34         -3.1460    -4.4310     2.4240 C          1 ASB      -0.114000
     44 C35         -4.4370    -4.8940     2.2090 C          1 ASB       0.000500
     45 C36         -4.6470    -5.8050     1.1900 C          1 ASB      -0.117600
     46 C37         -3.5610    -6.3490     0.5110 C          1 ASB       0.036200
     47 N5          -2.2910    -5.9270     0.7570 N          1 ASB       0.056400
     48 C38         -1.2100    -6.5970    -0.0070 C          1 ASB      -0.045900
     49 C39         -5.9690    -6.2360     0.7280 C           1 ASB       0.659700
     50 O6          -6.1150    -7.4360     0.5300 O           1 ASB      -0.527600
     51 N6          -6.9300    -5.3260     0.3910 N           1 ASB      -0.541400
     52 C40         -7.0300    -3.8880     0.6220 C          1 ASB       0.130800
     53 C41         -5.9380    -3.0300     0.0100 C          1 ASB      -0.123300
     54 C42         -5.2520    -3.4330    -1.1430 C          1 ASB      -0.097000
     55 C43         -5.6320    -1.7620     0.5480 C          1 ASB       0.144100
     56 O7          -6.2700    -1.3450     1.6910 O          1 ASB      -0.358900
     57 C44         -7.4990    -0.6700     1.3850 C          1 ASB       0.110700
     58 N7          -0.0710    -4.1260     2.8650 N          1 ASB       0.056400
     59 C45         -0.3710    -4.9640     4.0600 C          1 ASB      -0.045900
     60 C46          0.9300    -3.2090     2.9920 C          1 ASB       0.036200
     61 C47          5.5390     2.0620     0.7240 C          1 ASB       0.144100
     62 O8           5.9330     2.1980     2.0340 O          1 ASB      -0.358900
     63 C48          7.1490     1.4780     2.2870 C          1 ASB       0.110700
     64 N8          -0.2760     5.0040     0.6430 N          1 ASB       0.056400
     65 C49         -0.1530     6.3440     1.2810 C          1 ASB      -0.045900
     66 C50         -1.4570     4.3390     0.8070 C          1 ASB       0.036200
     67 H1          -1.3550    -3.6500    -4.2840 H          1 ASB       0.046700
     68 H2          -2.3410    -5.1450    -4.1270 H          1 ASB       0.046700
     69 H3          -0.8100    -4.9800    -3.2400 H          1 ASB       0.046700
     70 H4          -3.1710    -2.2770    -3.5390 H          1 ASB       0.063700
     71 H5          -4.1570    -3.7570    -3.5410 H          1 ASB       0.063700
     72 H6          -3.2080    -0.7540    -1.6240 H          1 ASB       0.126000
     73 H7          -4.4420     0.4130     1.6760 H          1 ASB       0.091200
     74 H8          -5.2170     1.1090     0.2350 H          1 ASB       0.091200
     75 H9          -2.3260     0.4880     0.2220 H          1 ASB       0.342000
     76 H10         -0.8020     1.5250    -0.9920 H          1 ASB       0.205500
     77 H11          1.3410     2.6910    -1.2280 H          1 ASB       0.209000
     78 H12          2.6640     4.6250     1.8870 H          1 ASB       0.209000
     79 H13          4.9850     5.3770     1.5830 H          1 ASB       0.205500
     80 H14          4.0670     6.3190    -2.5200 H          1 ASB       0.257000
     81 H15          1.3940     4.8090    -2.9730 H          1 ASB       0.116283
     82 H16          0.6220     6.2190    -2.1550 H          1 ASB       0.116283
     83 H17          2.0060     6.4710    -3.2400 H          1 ASB       0.116283
     84 H18          7.9800     5.5600    -0.9630 H          1 ASB       0.342000
     85 H19          8.0960     3.5370    -0.0330 H          1 ASB       0.091200
     86 H20          7.0060     4.2850     1.1480 H          1 ASB       0.091200
     87 H21          6.0580     3.3770    -2.3660 H          1 ASB       0.126000
     88 H22          4.8290     2.1640    -4.0130 H          1 ASB       0.063700
     89 H23          3.9010     0.7120    -3.5680 H          1 ASB       0.063700
     90 H24          2.1740     1.4460    -5.0340 H          1 ASB       0.046700
     91 H25          3.0850     2.9480    -5.4150 H          1 ASB       0.046700
     92 H26          1.4340     3.0380    -4.7610 H          1 ASB       0.046700
     93 H27          3.2570     0.3550    -1.1460 H          1 ASB       0.126000
     94 H28          3.5040     0.9610     2.3020 H          1 ASB       0.091200
     95 H29          4.7860    -0.2470     2.0680 H          1 ASB       0.091200
     96 H30          3.2770    -1.3600     0.4610 H          1 ASB       0.342000
     97 H31          0.9650    -1.9230    -0.1600 H          1 ASB       0.205500
     98 H32         -0.9000    -3.5000    -0.3610 H          1 ASB       0.209000
     99 H33         -3.0110    -3.6250     3.1450 H          1 ASB       0.209000
    100 H34         -5.2670    -4.5000     2.7930 H          1 ASB       0.205500
    101 H35         -3.7020    -7.1040    -0.2630 H          1 ASB       0.257000
    102 H36         -0.3130    -6.6470     0.6150 H          1 ASB       0.116283
    103 H37         -1.0360    -6.0180    -0.9150 H          1 ASB       0.116283
    104 H38         -1.5190    -7.6160    -0.2540 H          1 ASB       0.116283
    105 H39         -7.7970    -5.7810     0.1120 H          1 ASB       0.342000
    106 H40         -7.0830    -3.7490     1.7050 H          1 ASB       0.091200
    107 H41         -7.9890    -3.5760     0.1930 H          1 ASB       0.091200
    108 H42         -5.5160    -4.3750    -1.6260 H          1 ASB       0.126000
    109 H43         -7.3850     0.0460     0.5640 H          1 ASB       0.063367
    110 H44         -8.2850    -1.3920     1.1460 H          1 ASB       0.063367
    111 H45         -7.8060    -0.1190     2.2790 H          1 ASB       0.063367
    112 H46         -1.1180    -4.4350     4.6560 H          1 ASB       0.116283
    113 H47         -0.7310    -5.9410     3.7320 H          1 ASB       0.116283
    114 H48          0.5500    -5.1060     4.6330 H          1 ASB       0.116283
    115 H49          1.3860    -3.1040     3.9770 H          1 ASB       0.257000
    116 H50          7.1230     0.4690     1.8620 H          1 ASB       0.063367
    117 H51          7.2610     1.3880     3.3720 H          1 ASB       0.063367
    118 H52          8.0120     2.0270     1.9010 H          1 ASB       0.063367
    119 H53          0.3190     7.0270     0.5700 H          1 ASB       0.116283
    120 H54          0.4480     6.2240     2.1860 H          1 ASB       0.116283
    121 H55         -1.1450     6.7270     1.5330 H          1 ASB       0.116283
    122 H56         -2.2290     4.8370     1.3940 H          1 ASB       0.257000
@<TRIPOS>BOND
     1     1     2 1   
     2     1    67 1   
     3     1    68 1   
     4     1    69 1   
     5     2     3 1   
     6     3     4 1   
     7     3    70 1   
     8     3    71 1   
     9     4     5 ar  
    10     4    54 ar  
    11     5     6 ar  
    12     5    72 1   
    13     6     7 1   
    14     6    55 ar  
    15     7     8 1   
    16     7    73 1   
    17     7    74 1   
    18     8     9 1   
    19     8    75 1   
    20     9    10 2   
    21     9    11 1   
    22    11    12 1   
    23    11    66 2   
    24    12    13 2   
    25    12    76 1   
    26    13    14 1   
    27    13    77 1   
    28    14    15 2   
    29    14    64 1   
    30    15    16 1   
    31    15    20 1   
    32    16    17 2   
    33    16    78 1   
    34    17    18 1   
    35    17    79 1   
    36    18    19 2   
    37    18    22 1   
    38    19    20 1   
    39    19    80 1   
    40    20    21 1   
    41    21    81 1   
    42    21    82 1   
    43    21    83 1   
    44    22    23 2   
    45    22    24 1   
    46    24    25 1   
    47    24    84 1   
    48    25    26 1   
    49    25    85 1   
    50    25    86 1   
    51    26    27 ar  
    52    26    61 ar  
    53    27    28 ar  
    54    27    87 1   
    55    28    29 1   
    56    28    32 ar  
    57    29    30 1   
    58    29    88 1   
    59    29    89 1   
    60    30    31 1   
    61    31    90 1   
    62    31    91 1   
    63    31    92 1   
    64    32    33 ar  
    65    32    93 1   
    66    33    34 1   
    67    33    61 ar  
    68    34    35 1   
    69    34    94 1   
    70    34    95 1   
    71    35    36 1   
    72    35    96 1   
    73    36    37 2   
    74    36    38 1   
    75    38    39 1   
    76    38    60 2   
    77    39    40 2   
    78    39    97 1   
    79    40    41 1   
    80    40    98 1   
    81    41    42 2   
    82    41    58 1   
    83    42    43 1   
    84    42    47 1   
    85    43    44 2   
    86    43    99 1   
    87    44    45 1   
    88    44   100 1   
    89    45    46 2   
    90    45    49 1   
    91    46    47 1   
    92    46   101 1   
    93    47    48 1   
    94    48   102 1   
    95    48   103 1   
    96    48   104 1   
    97    49    50 2   
    98    49    51 1   
    99    51    52 1   
   100    51   105 1   
   101    52    53 1   
   102    52   106 1   
   103    52   107 1   
   104    53    54 ar  
   105    53    55 ar  
   106    54   108 1   
   107    55    56 1   
   108    56    57 1   
   109    57   109 1   
   110    57   110 1   
   111    57   111 1   
   112    58    59 1   
   113    58    60 1   
   114    59   112 1   
   115    59   113 1   
   116    59   114 1   
   117    60   115 1   
   118    61    62 1   
   119    62    63 1   
   120    63   116 1   
   121    63   117 1   
   122    63   118 1   
   123    64    65 1   
   124    64    66 1   
   125    65   119 1   
   126    65   120 1   
   127    65   121 1   
   128    66   122 1   
@<TRIPOS>SUBSTRUCTURE
     1 ASB         1 TEMP              0 ****  ****    0 ROOT
