@<TRIPOS>MOLECULE
85
  103   112     1     0     0
SMALL
bcc


@<TRIPOS>ATOM
      1 O           -1.9180    -4.0910     1.1860 O           0 85       -0.584600
      2 C           -1.2250    -3.5320     0.3620 C           0 85        0.639100
      3 C1          -1.6860    -2.2170    -0.2220 C          0 85        0.053400
      4 O1          -2.7610    -1.6670     0.5400 O          0 85       -0.333400
      5 C2          -3.9060    -1.8760    -0.1430 C          0 85        0.093600
      6 C3          -4.0900    -3.1510    -0.7070 C          0 85       -0.131000
      7 C4          -5.2030    -3.4870    -1.3970 C          0 85       -0.106000
      8 C5          -6.2230    -2.5420    -1.5850 C          0 85       -0.041000
      9 C6          -7.4160    -2.8800    -2.2440 C          0 85       -0.119500
     10 C7          -8.3590    -1.9280    -2.4770 C          0 85       -0.123000
     11 C8          -8.1460    -0.6110    -2.0630 C          0 85       -0.121500
     12 C9          -7.0060    -0.2600    -1.3940 C          0 85       -0.116500
     13 C10         -6.0420    -1.2310    -1.0890 C          0 85       -0.021500
     14 C11         -4.9070    -0.9150    -0.2720 C          0 85       -0.039000
     15 C12         -4.9240     0.3870     0.4060 C          0 85       -0.039000
     16 C13         -3.9630     1.3750     0.5100 C          0 85        0.093600
     17 O2          -2.7040     1.2550     0.0250 O          0 85       -0.333400
     18 C14         -2.5840     1.9910    -1.1820 C          0 85        0.053400
     19 C15         -2.2650     3.4450    -0.9700 C           0 85        0.639100
     20 O3          -3.1250     4.2610    -1.2280 O           0 85       -0.584600
     21 N           -1.0440     3.8320    -0.5300 N           0 85       -0.470600
     22 C16         -0.8130     5.1930    -0.2350 C          0 85        0.097100
     23 C17          0.5020     5.6850    -0.2290 C          0 85       -0.061600
     24 S            1.8560     4.6050    -0.5660 S          0 85       -0.238500
     25 C18          3.0480     5.1760     0.6670 C          0 85       -0.032600
     26 C19          4.4430     4.7540     0.2850 C          0 85        0.236100
     27 C20          4.7840     3.7710    -0.5750 C          0 85       -0.178100
     28 N1           6.1350     3.7450    -0.6090 N          0 85        0.042400
     29 C21          6.9600     2.8400    -1.4020 C          0 85        0.007000
     30 C22          7.4170     1.6600    -0.5940 C          0 85        0.371600
     31 N2           7.3120     0.4600    -1.1380 N          0 85       -0.655000
     32 C23          7.6870    -0.6350    -0.5100 C          0 85        0.371600
     33 C24          7.5370    -1.9570    -1.2010 C          0 85        0.007000
     34 N3           6.8620    -2.9260    -0.3460 N          0 85        0.042400
     35 C25          5.5560    -3.2590    -0.3980 C          0 85       -0.178100
     36 C26          5.3580    -4.1870     0.5630 C          0 85        0.236100
     37 C27          4.0710    -4.8800     0.9150 C          0 85       -0.032600
     38 S1           2.8250    -4.5590    -0.3600 S          0 85       -0.238500
     39 C28          1.6270    -5.7850     0.0430 C          0 85       -0.061600
     40 C29          2.0030    -7.1020     0.2470 C          0 85       -0.096500
     41 C30          1.0520    -8.0510     0.5700 C          0 85       -0.151500
     42 C31         -0.2760    -7.6880     0.6850 C          0 85       -0.098500
     43 C32         -0.6610    -6.3760     0.4780 C          0 85       -0.153500
     44 C33          0.2760    -5.4230     0.1620 C          0 85        0.097100
     45 N4          -0.0630    -4.0780    -0.0380 N           0 85       -0.470600
     46 N5           6.5460    -4.3800     1.1570 N          0 85       -0.346000
     47 N6           7.4210    -3.6160     0.5930 N          0 85       -0.166800
     48 C34          8.2120    -0.5670     0.7690 C          0 85       -0.206800
     49 C35          8.3400     0.6770     1.3840 C          0 85       -0.092000
     50 C36          7.9310     1.8080     0.6800 C          0 85       -0.206800
     51 N7           6.5780     4.6630     0.1820 N          0 85       -0.166800
     52 N8           5.5920     5.2840     0.7340 N          0 85       -0.346000
     53 C37          0.7320     7.0300     0.0390 C          0 85       -0.096500
     54 C38         -0.3320     7.8740     0.3170 C          0 85       -0.151500
     55 C39         -1.6220     7.3720     0.3480 C          0 85       -0.098500
     56 C40         -1.8560     6.0370     0.0840 C          0 85       -0.153500
     57 C41         -4.2670     2.6010     1.1340 C          0 85       -0.131000
     58 C42         -5.4800     2.8590     1.6760 C          0 85       -0.106000
     59 C43         -6.4630     1.8580     1.6830 C          0 85       -0.041000
     60 C44         -7.7450     2.0750     2.2120 C          0 85       -0.119500
     61 C45         -8.6280     1.0430     2.2970 C          0 85       -0.123000
     62 C46         -8.2770    -0.2370     1.8600 C          0 85       -0.121500
     63 C47         -7.0500    -0.4680     1.3010 C          0 85       -0.116500
     64 C48         -6.1530     0.5970     1.1380 C          0 85       -0.021500
     65 H           -0.8480    -1.5180    -0.2160 H          0 85        0.092950
     66 H1          -2.0040    -2.3730    -1.2520 H          0 85        0.092950
     67 H2          -3.3190    -3.8990    -0.5870 H          0 85        0.163500
     68 H3          -5.3060    -4.4840    -1.8040 H          0 85        0.140000
     69 H4          -7.5850    -3.8980    -2.5640 H          0 85        0.134500
     70 H5          -9.2780    -2.1930    -2.9810 H          0 85        0.135000
     71 H6          -8.8920     0.1410    -2.2730 H          0 85        0.137500
     72 H7          -6.8470     0.7710    -1.1100 H          0 85        0.147000
     73 H8          -1.7880     1.5510    -1.7860 H          0 85        0.092950
     74 H9          -3.5200     1.9170    -1.7370 H          0 85        0.092950
     75 H10         -0.3290     3.1700    -0.4180 H          0 85        0.335500
     76 H11          3.0110     6.2650     0.7320 H          0 85        0.095950
     77 H12          2.7960     4.7510     1.6390 H          0 85        0.095950
     78 H13          4.1120     3.1310    -1.1280 H          0 85        0.206000
     79 H14          6.3810     2.4840    -2.2540 H          0 85        0.086950
     80 H15          7.8330     3.3810    -1.7670 H          0 85        0.086950
     81 H16          6.9550    -1.8190    -2.1120 H          0 85        0.086950
     82 H17          8.5240    -2.3370    -1.4620 H          0 85        0.086950
     83 H18          4.8150    -2.8600    -1.0770 H          0 85        0.206000
     84 H19          4.2490    -5.9540     0.9850 H          0 85        0.095950
     85 H20          3.7110    -4.5110     1.8750 H          0 85        0.095950
     86 H21          3.0400    -7.3890     0.1520 H          0 85        0.144500
     87 H22          1.3470    -9.0770     0.7330 H          0 85        0.137000
     88 H23         -1.0170    -8.4320     0.9390 H          0 85        0.136500
     89 H24         -1.7050    -6.1090     0.5570 H          0 85        0.172000
     90 H25          0.5750    -3.5040    -0.4980 H          0 85        0.335500
     91 H26          8.5200    -1.4660     1.2850 H          0 85        0.156500
     92 H27          8.7450     0.7620     2.3810 H          0 85        0.151000
     93 H28          8.0180     2.7890     1.1240 H          0 85        0.156500
     94 H29          1.7390     7.4230     0.0190 H          0 85        0.144500
     95 H30         -0.1520     8.9200     0.5120 H          0 85        0.137000
     96 H31         -2.4500     8.0300     0.5760 H          0 85        0.136500
     97 H32         -2.8650     5.6600     0.1610 H          0 85        0.172000
     98 H33         -3.5030     3.3630     1.1860 H          0 85        0.163500
     99 H34         -5.6920     3.8300     2.0990 H          0 85        0.140000
    100 H35         -8.0330     3.0610     2.5480 H          0 85        0.134500
    101 H36         -9.6120     1.2140     2.7070 H          0 85        0.135000
    102 H37         -8.9780    -1.0520     1.9630 H          0 85        0.137500
    103 H38         -6.7770    -1.4710     1.0100 H          0 85        0.147000
@<TRIPOS>BOND
     1     1     2 2   
     2     2     3 1   
     3     2    45 1   
     4     3     4 1   
     5     3    65 1   
     6     3    66 1   
     7     4     5 1   
     8     5     6 ar  
     9     5    14 ar  
    10     6     7 ar  
    11     6    67 1   
    12     7     8 ar  
    13     7    68 1   
    14     8     9 ar  
    15     8    13 ar  
    16     9    10 ar  
    17     9    69 1   
    18    10    11 ar  
    19    10    70 1   
    20    11    12 ar  
    21    11    71 1   
    22    12    13 ar  
    23    12    72 1   
    24    13    14 ar  
    25    14    15 1   
    26    15    16 ar  
    27    15    64 ar  
    28    16    17 1   
    29    16    57 ar  
    30    17    18 1   
    31    18    19 1   
    32    18    73 1   
    33    18    74 1   
    34    19    20 2   
    35    19    21 1   
    36    21    22 1   
    37    21    75 1   
    38    22    23 ar  
    39    22    56 ar  
    40    23    24 1   
    41    23    53 ar  
    42    24    25 1   
    43    25    26 1   
    44    25    76 1   
    45    25    77 1   
    46    26    27 2   
    47    26    52 1   
    48    27    28 1   
    49    27    78 1   
    50    28    29 1   
    51    28    51 1   
    52    29    30 1   
    53    29    79 1   
    54    29    80 1   
    55    30    31 ar  
    56    30    50 ar  
    57    31    32 ar  
    58    32    33 1   
    59    32    48 ar  
    60    33    34 1   
    61    33    81 1   
    62    33    82 1   
    63    34    35 1   
    64    34    47 1   
    65    35    36 2   
    66    35    83 1   
    67    36    37 1   
    68    36    46 1   
    69    37    38 1   
    70    37    84 1   
    71    37    85 1   
    72    38    39 1   
    73    39    40 ar  
    74    39    44 ar  
    75    40    41 ar  
    76    40    86 1   
    77    41    42 ar  
    78    41    87 1   
    79    42    43 ar  
    80    42    88 1   
    81    43    44 ar  
    82    43    89 1   
    83    44    45 1   
    84    45    90 1   
    85    46    47 2   
    86    48    49 ar  
    87    48    91 1   
    88    49    50 ar  
    89    49    92 1   
    90    50    93 1   
    91    51    52 2   
    92    53    54 ar  
    93    53    94 1   
    94    54    55 ar  
    95    54    95 1   
    96    55    56 ar  
    97    55    96 1   
    98    56    97 1   
    99    57    58 ar  
   100    57    98 1   
   101    58    59 ar  
   102    58    99 1   
   103    59    60 ar  
   104    59    64 ar  
   105    60    61 ar  
   106    60   100 1   
   107    61    62 ar  
   108    61   101 1   
   109    62    63 ar  
   110    62   102 1   
   111    63    64 ar  
   112    63   103 1   
@<TRIPOS>SUBSTRUCTURE
     1 85          1 TEMP              0 ****  ****    0 ROOT
