@<TRIPOS>MOLECULE
ASB
  112   118     1     0     0
SMALL
bcc


@<TRIPOS>ATOM
      1 C           -4.9120    -0.0400    -0.0090 C          0 ASB      -0.105800
      2 C1          -6.4150     0.0680     0.0040 C          0 ASB       0.095700
      3 C2          -7.0350     1.3140     0.0040 C          0 ASB      -0.185600
      4 C3          -8.4430     1.3640     0.0180 C          0 ASB       0.094900
      5 C4          -9.1420     2.7000     0.0070 C          0 ASB      -0.100300
      6 N           -9.1520     0.2600     0.0390 N          0 ASB       0.000900
      7 C5         -10.6130     0.3630     0.0610 C          0 ASB      -0.036400
      8 C6          -8.6050    -0.9320     0.0420 C          0 ASB       0.094900
      9 C7          -9.4830    -2.1570     0.0730 C          0 ASB      -0.100300
     10 C8          -7.2060    -1.0770     0.0110 C          0 ASB      -0.185600
     11 C9          -6.6900    -2.4440    -0.0140 C           0 ASB       0.659700
     12 O           -7.5220    -3.3300    -0.0410 O           0 ASB      -0.554600
     13 N1          -5.4050    -2.8400    -0.0110 N           0 ASB      -0.540900
     14 C10         -5.2040    -4.3110    -0.0310 C          0 ASB       0.125800
     15 C11         -3.7250    -4.5830    -0.0260 C          0 ASB      -0.136300
     16 C12         -3.0520    -4.7270     1.1750 C          0 ASB      -0.113750
     17 C13         -1.6840    -4.9040     1.1850 C          0 ASB      -0.117500
     18 C14         -0.9780    -4.9160    -0.0160 C          0 ASB      -0.028500
     19 C15         -1.6720    -4.8800    -1.2250 C          0 ASB      -0.117500
     20 C16         -3.0410    -4.7020    -1.2230 C          0 ASB      -0.113750
     21 C17          0.4990    -4.8470    -0.0030 C          0 ASB      -0.028500
     22 C18          1.1840    -4.7580     1.2070 C          0 ASB      -0.117500
     23 C19          2.5560    -4.6060     1.2130 C          0 ASB      -0.113750
     24 C20          3.2520    -4.5520     0.0210 C          0 ASB      -0.136300
     25 C21          4.7400    -4.3270     0.0200 C          0 ASB       0.125800
     26 N2           5.0430    -2.8820    -0.1110 N           0 ASB      -0.540900
     27 C22          6.3500    -2.5980     0.0270 C           0 ASB       0.659700
     28 O1           7.0690    -3.5640     0.1950 O           0 ASB      -0.554600
     29 C23          7.0410    -1.3150     0.0060 C          0 ASB      -0.185600
     30 C24          8.4490    -1.3600    -0.0090 C          0 ASB       0.094900
     31 C25          9.1520    -2.6920     0.0040 C          0 ASB      -0.100300
     32 N3           9.1550    -0.2530    -0.0340 N          0 ASB       0.000900
     33 C26         10.6160    -0.3530    -0.0540 C          0 ASB      -0.036400
     34 C27          8.6060     0.9370    -0.0430 C          0 ASB       0.094900
     35 C28          9.4820     2.1630    -0.0900 C          0 ASB      -0.100300
     36 C29          7.2070     1.0800    -0.0090 C          0 ASB      -0.185600
     37 C30          6.4180    -0.0680     0.0140 C          0 ASB       0.095700
     38 C31          4.9150     0.0370     0.0470 C          0 ASB      -0.105800
     39 C32          6.6860     2.4440     0.0110 C           0 ASB       0.659700
     40 O2           7.5120     3.3360     0.0230 O           0 ASB      -0.554600
     41 N4           5.3940     2.8260     0.0170 N           0 ASB      -0.540900
     42 C33          5.2000     4.2960     0.0750 C          0 ASB       0.125800
     43 C34          3.7210     4.5780     0.0480 C          0 ASB      -0.136300
     44 C35          3.0310     4.7770     1.2310 C          0 ASB      -0.113750
     45 C36          1.6640     4.9580     1.2130 C          0 ASB      -0.117500
     46 C37          0.9760     4.9190     0.0010 C          0 ASB      -0.028500
     47 C38          1.6900     4.8310    -1.1940 C          0 ASB      -0.117500
     48 C39          3.0570     4.6490    -1.1640 C          0 ASB      -0.113750
     49 C40         -0.5000     4.8470    -0.0160 C          0 ASB      -0.028500
     50 C41         -1.2130     4.8110     1.1800 C          0 ASB      -0.117500
     51 C42         -2.5850     4.6560     1.1570 C          0 ASB      -0.113750
     52 C43         -3.2530     4.5510    -0.0500 C          0 ASB      -0.136300
     53 C44         -4.7370     4.3270    -0.0670 C          0 ASB       0.125800
     54 N5          -5.0330     2.8770     0.0100 N           0 ASB      -0.540900
     55 C45         -6.3480     2.5960    -0.0080 C           0 ASB       0.659700
     56 O3          -7.0770     3.5680    -0.0490 O           0 ASB      -0.554600
     57 C46         -2.5540     4.6500    -1.2420 C          0 ASB      -0.113750
     58 C47         -1.1820     4.8020    -1.2310 C          0 ASB      -0.117500
     59 C48          2.5850    -4.7080    -1.1840 C          0 ASB      -0.113750
     60 C49          1.2130    -4.8580    -1.2020 C          0 ASB      -0.117500
     61 H           -4.5460    -0.1460     1.0120 H          0 ASB       0.090700
     62 H1          -4.6150    -0.9100    -0.5940 H          0 ASB       0.090700
     63 H2          -4.4870     0.8600    -0.4550 H          0 ASB       0.090700
     64 H3          -9.0790     3.1350    -0.9900 H          0 ASB       0.101200
     65 H4         -10.1890     2.5640     0.2780 H          0 ASB       0.101200
     66 H5          -8.6650     3.3650     0.7260 H          0 ASB       0.101200
     67 H6         -10.9860     0.4490    -0.9600 H          0 ASB       0.100700
     68 H7         -11.0330    -0.5280     0.5270 H          0 ASB       0.100700
     69 H8         -10.9070     1.2440     0.6310 H          0 ASB       0.100700
     70 H9          -9.5880    -2.5540    -0.9370 H          0 ASB       0.101200
     71 H10         -9.0300    -2.9120     0.7150 H          0 ASB       0.101200
     72 H11        -10.4650    -1.8900     0.4630 H          0 ASB       0.101200
     73 H12         -4.6660    -2.2120     0.0030 H          0 ASB       0.312000
     74 H13         -5.6630    -4.7570     0.8520 H          0 ASB       0.084950
     75 H14         -5.6520    -4.7310    -0.9310 H          0 ASB       0.084950
     76 H15         -3.6000    -4.7010     2.1050 H          0 ASB       0.145500
     77 H16         -1.1610    -5.0320     2.1220 H          0 ASB       0.144250
     78 H17         -1.1410    -4.9890    -2.1590 H          0 ASB       0.144250
     79 H18         -3.5790    -4.6570    -2.1580 H          0 ASB       0.145500
     80 H19          0.6420    -4.8080     2.1390 H          0 ASB       0.144250
     81 H20          3.0860    -4.5280     2.1510 H          0 ASB       0.145500
     82 H21          5.1620    -4.7000     0.9530 H          0 ASB       0.084950
     83 H22          5.1860    -4.8660    -0.8150 H          0 ASB       0.084950
     84 H23          4.3660    -2.2090    -0.2810 H          0 ASB       0.312000
     85 H24          8.9830    -3.2020    -0.9450 H          0 ASB       0.101200
     86 H25         10.2210    -2.5370     0.1470 H          0 ASB       0.101200
     87 H26          8.7610    -3.3020     0.8190 H          0 ASB       0.101200
     88 H27         10.9600    -0.4380    -1.0850 H          0 ASB       0.100700
     89 H28         11.0470     0.5380     0.4010 H          0 ASB       0.100700
     90 H29         10.9280    -1.2350     0.5070 H          0 ASB       0.100700
     91 H30          9.4500     2.5940    -1.0900 H          0 ASB       0.101200
     92 H31          9.1210     2.8950     0.6330 H          0 ASB       0.101200
     93 H32         10.5070     1.8860     0.1550 H          0 ASB       0.101200
     94 H33          4.5400     0.2000    -0.9640 H          0 ASB       0.090700
     95 H34          4.4950    -0.8860     0.4460 H          0 ASB       0.090700
     96 H35          4.6230     0.8730     0.6820 H          0 ASB       0.090700
     97 H36          4.6570     2.1960    -0.0150 H          0 ASB       0.312000
     98 H37          5.6320     4.6870     0.9960 H          0 ASB       0.084950
     99 H38          5.6790     4.7640    -0.7840 H          0 ASB       0.084950
    100 H39          3.5640     4.7890     2.1700 H          0 ASB       0.145500
    101 H40          1.1290     5.1290     2.1350 H          0 ASB       0.144250
    102 H41          1.1740     4.9030    -2.1400 H          0 ASB       0.144250
    103 H42          3.6100     4.5620    -2.0870 H          0 ASB       0.145500
    104 H43         -0.6940     4.9030     2.1220 H          0 ASB       0.144250
    105 H44         -3.1380     4.6160     2.0830 H          0 ASB       0.145500
    106 H45         -5.1900     4.8340     0.7850 H          0 ASB       0.084950
    107 H46         -5.1530     4.7320    -0.9900 H          0 ASB       0.084950
    108 H47         -4.3440     2.1970     0.0770 H          0 ASB       0.312000
    109 H48         -3.0840     4.6090    -2.1820 H          0 ASB       0.145500
    110 H49         -0.6380     4.8850    -2.1600 H          0 ASB       0.144250
    111 H50          3.1390    -4.7120    -2.1100 H          0 ASB       0.145500
    112 H51          0.6950    -4.9820    -2.1410 H          0 ASB       0.144250
@<TRIPOS>BOND
     1     1     2 1   
     2     1    61 1   
     3     1    62 1   
     4     1    63 1   
     5     2     3 ar  
     6     2    10 ar  
     7     3     4 ar  
     8     3    55 1   
     9     4     5 1   
    10     4     6 1   
    11     5    64 1   
    12     5    65 1   
    13     5    66 1   
    14     6     7 1   
    15     6     8 2   
    16     7    67 1   
    17     7    68 1   
    18     7    69 1   
    19     8     9 1   
    20     8    10 ar  
    21     9    70 1   
    22     9    71 1   
    23     9    72 1   
    24    10    11 1   
    25    11    12 2   
    26    11    13 1   
    27    13    14 1   
    28    13    73 1   
    29    14    15 1   
    30    14    74 1   
    31    14    75 1   
    32    15    16 ar  
    33    15    20 ar  
    34    16    17 ar  
    35    16    76 1   
    36    17    18 ar  
    37    17    77 1   
    38    18    19 ar  
    39    18    21 1   
    40    19    20 ar  
    41    19    78 1   
    42    20    79 1   
    43    21    22 ar  
    44    21    60 ar  
    45    22    23 ar  
    46    22    80 1   
    47    23    24 ar  
    48    23    81 1   
    49    24    25 1   
    50    24    59 ar  
    51    25    26 1   
    52    25    82 1   
    53    25    83 1   
    54    26    27 1   
    55    26    84 1   
    56    27    28 2   
    57    27    29 1   
    58    29    30 ar  
    59    29    37 ar  
    60    30    31 1   
    61    30    32 2   
    62    31    85 1   
    63    31    86 1   
    64    31    87 1   
    65    32    33 1   
    66    32    34 1   
    67    33    88 1   
    68    33    89 1   
    69    33    90 1   
    70    34    35 1   
    71    34    36 ar  
    72    35    91 1   
    73    35    92 1   
    74    35    93 1   
    75    36    37 ar  
    76    36    39 1   
    77    37    38 1   
    78    38    94 1   
    79    38    95 1   
    80    38    96 1   
    81    39    40 2   
    82    39    41 1   
    83    41    42 1   
    84    41    97 1   
    85    42    43 1   
    86    42    98 1   
    87    42    99 1   
    88    43    44 ar  
    89    43    48 ar  
    90    44    45 ar  
    91    44   100 1   
    92    45    46 ar  
    93    45   101 1   
    94    46    47 ar  
    95    46    49 1   
    96    47    48 ar  
    97    47   102 1   
    98    48   103 1   
    99    49    50 ar  
   100    49    58 ar  
   101    50    51 ar  
   102    50   104 1   
   103    51    52 ar  
   104    51   105 1   
   105    52    53 1   
   106    52    57 ar  
   107    53    54 1   
   108    53   106 1   
   109    53   107 1   
   110    54    55 1   
   111    54   108 1   
   112    55    56 2   
   113    57    58 ar  
   114    57   109 1   
   115    58   110 1   
   116    59    60 ar  
   117    59   111 1   
   118    60   112 1   
@<TRIPOS>SUBSTRUCTURE
     1 ASB         1 TEMP              0 ****  ****    0 ROOT
