@<TRIPOS>MOLECULE
51
   86    93     1     0     0
SMALL
bcc


@<TRIPOS>ATOM
      1 O1          -1.6400    -5.9820    -0.1590 O           1 51       -0.580100
      2 C1          -0.7620    -5.1850     0.2010 C           1 51        0.660600
      3 C2          -0.9930    -3.6760     0.0960 C          1 51        0.076400
      4 O2          -0.1600    -3.0750    -0.8760 O          1 51       -0.317900
      5 C3          -0.4840    -1.8760    -1.4480 C          1 51        0.125600
      6 C4           0.2570    -1.6920    -2.6230 C          1 51       -0.131500
      7 C5           0.0870    -0.5700    -3.4250 C          1 51       -0.100500
      8 C6          -0.8410     0.4100    -3.0820 C          1 51       -0.053000
      9 C7          -1.0200     1.5160    -3.9310 C          1 51       -0.114500
     10 C8          -1.9350     2.5180    -3.6240 C          1 51       -0.130000
     11 C9          -2.6760     2.4300    -2.4560 C          1 51       -0.119500
     12 C10         -2.5040     1.3350    -1.6040 C          1 51       -0.126500
     13 C11         -1.5900     0.2830    -1.8850 C          1 51       -0.019000
     14 C12         -1.3910    -0.8720    -1.0330 C          1 51       -0.080000
     15 C13         -2.1440    -0.9410     0.2520 C          1 51       -0.080000
     16 C14         -1.5270    -0.5840     1.4740 C          1 51        0.125600
     17 C15         -2.2100    -0.6980     2.6820 C          1 51       -0.131500
     18 C16         -3.5410    -1.1010     2.7000 C          1 51       -0.100500
     19 C17         -4.2060    -1.4250     1.5130 C          1 51       -0.053000
     20 C18         -5.5510    -1.8290     1.5580 C          1 51       -0.114500
     21 C19         -6.2360    -2.1770     0.3970 C          1 51       -0.130000
     22 C20         -5.5840    -2.1280    -0.8260 C          1 51       -0.119500
     23 C21         -4.2480    -1.7270    -0.8860 C          1 51       -0.126500
     24 C22         -3.5190    -1.3570     0.2730 C          1 51       -0.019000
     25 O3          -0.2050    -0.2150     1.5670 O          1 51       -0.317900
     26 C23         -0.0090     1.1630     1.2620 C          1 51        0.076400
     27 C24         -0.5170     2.2350     2.2390 C           1 51        0.660600
     28 O4          -0.8070     1.9820     3.4120 O           1 51       -0.580100
     29 N1          -0.6840     3.5230     1.8070 N           1 51       -0.555900
     30 C25         -0.3240     4.0960     0.5850 C          1 51        0.570700
     31 C26         -0.8960     5.3210     0.2690 C          1 51       -0.305800
     32 C27         -0.6350     5.8800    -0.9760 C          1 51       -0.043500
     33 C28          0.2020     5.2070    -1.8570 C          1 51       -0.288800
     34 C29          0.7890     4.0170    -1.4450 C          1 51        0.562200
     35 N2           0.5400     3.4690    -0.2380 N          1 51       -0.756500
     36 N3           1.6330     3.3760    -2.3580 N           1 51       -0.547400
     37 C30          2.4570     2.2960    -2.1630 C           1 51        0.684200
     38 O5           2.8190     1.6130    -3.1200 O           1 51       -0.566100
     39 C31          3.0430     2.0100    -0.8320 C          1 51       -0.143100
     40 C32          3.1920     0.6770    -0.4220 C          1 51       -0.025000
     41 C33          3.8020     0.3960     0.8080 C          1 51       -0.143100
     42 C34          4.2940     1.4360     1.6100 C          1 51       -0.008000
     43 C35          4.1610     2.7590     1.1790 C          1 51       -0.191200
     44 N4           4.6690     3.8540     2.0140 N          1 51        0.316200
     45 O6           4.5610     5.0080     1.5750 O           1 51       -0.200500
     46 O7           5.1690     3.5620     3.1080 O           1 51       -0.200500
     47 C36          3.5510     3.0520    -0.0450 C          1 51       -0.008000
     48 C37          3.9970    -0.9960     1.2870 C           1 51        0.684200
     49 O8           5.0540    -1.2590     1.8470 O           1 51       -0.566100
     50 N5           2.9420    -1.8460     1.0720 N           1 51       -0.547400
     51 C38          2.8800    -3.2130     1.3540 C          1 51        0.562200
     52 C39          3.9270    -3.9530     1.8790 C          1 51       -0.288800
     53 C40          3.7520    -5.3220     2.0470 C          1 51       -0.043500
     54 C41          2.5480    -5.9050     1.6690 C          1 51       -0.305800
     55 C42          1.5450    -5.0940     1.1530 C          1 51        0.570700
     56 N6           1.6980    -3.7690     1.0230 N          1 51       -0.756500
     57 N7           0.3720    -5.7190     0.7340 N           1 51       -0.555900
     58 H1          -2.0440    -3.5760    -0.1880 H          1 51        0.090450
     59 H2          -0.8340    -3.2390     1.0860 H          1 51        0.090450
     60 H3           0.9740    -2.4530    -2.9270 H          1 51        0.167000
     61 H4           0.6890    -0.4790    -4.3270 H          1 51        0.141500
     62 H5          -0.4430     1.5960    -4.8510 H          1 51        0.134500
     63 H6          -2.0710     3.3600    -4.2970 H          1 51        0.134500
     64 H7          -3.3950     3.2040    -2.2030 H          1 51        0.136000
     65 H8          -3.1110     1.3110    -0.7010 H          1 51        0.145500
     66 H9          -1.7060    -0.4630     3.6170 H          1 51        0.167000
     67 H10         -4.0520    -1.1650     3.6580 H          1 51        0.141500
     68 H11         -6.0770    -1.8830     2.5090 H          1 51        0.134500
     69 H12         -7.2750    -2.4930     0.4500 H          1 51        0.134500
     70 H13         -6.1070    -2.4070    -1.7370 H          1 51        0.136000
     71 H14         -3.7720    -1.7140    -1.8650 H          1 51        0.145500
     72 H15         -0.3920     1.3620     0.2640 H          1 51        0.090450
     73 H16          1.0720     1.3020     1.2370 H          1 51        0.090450
     74 H17         -1.1620     4.1030     2.4830 H          1 51        0.334000
     75 H18         -1.5700     5.8260     0.9540 H          1 51        0.150500
     76 H19         -1.0890     6.8250    -1.2610 H          1 51        0.147000
     77 H20          0.4070     5.6300    -2.8350 H          1 51        0.168000
     78 H21          1.5070     3.6070    -3.3340 H          1 51        0.343500
     79 H22          2.8470    -0.1250    -1.0730 H          1 51        0.174000
     80 H23          4.7790     1.1980     2.5570 H          1 51        0.187500
     81 H24          3.4730     4.0800    -0.3930 H          1 51        0.187500
     82 H25          2.0670    -1.5040     0.6910 H          1 51        0.343500
     83 H26          4.8750    -3.5070     2.1510 H          1 51        0.168000
     84 H27          4.5570    -5.9290     2.4530 H          1 51        0.147000
     85 H28          2.4130    -6.9760     1.7760 H          1 51        0.150500
     86 H29          0.3390    -6.7270     0.7730 H          1 51        0.334000
@<TRIPOS>BOND
     1     1     2 2   
     2     2     3 1   
     3     2    57 1   
     4     3     4 1   
     5     3    58 1   
     6     3    59 1   
     7     4     5 1   
     8     5     6 ar  
     9     5    14 ar  
    10     6     7 ar  
    11     6    60 1   
    12     7     8 ar  
    13     7    61 1   
    14     8     9 ar  
    15     8    13 ar  
    16     9    10 ar  
    17     9    62 1   
    18    10    11 ar  
    19    10    63 1   
    20    11    12 ar  
    21    11    64 1   
    22    12    13 ar  
    23    12    65 1   
    24    13    14 ar  
    25    14    15 1   
    26    15    16 ar  
    27    15    24 ar  
    28    16    17 ar  
    29    16    25 1   
    30    17    18 ar  
    31    17    66 1   
    32    18    19 ar  
    33    18    67 1   
    34    19    20 ar  
    35    19    24 ar  
    36    20    21 ar  
    37    20    68 1   
    38    21    22 ar  
    39    21    69 1   
    40    22    23 ar  
    41    22    70 1   
    42    23    24 ar  
    43    23    71 1   
    44    25    26 1   
    45    26    27 1   
    46    26    72 1   
    47    26    73 1   
    48    27    28 2   
    49    27    29 1   
    50    29    30 1   
    51    29    74 1   
    52    30    31 ar  
    53    30    35 ar  
    54    31    32 ar  
    55    31    75 1   
    56    32    33 ar  
    57    32    76 1   
    58    33    34 ar  
    59    33    77 1   
    60    34    35 ar  
    61    34    36 1   
    62    36    37 1   
    63    36    78 1   
    64    37    38 2   
    65    37    39 1   
    66    39    40 ar  
    67    39    47 ar  
    68    40    41 ar  
    69    40    79 1   
    70    41    42 ar  
    71    41    48 1   
    72    42    43 ar  
    73    42    80 1   
    74    43    44 1   
    75    43    47 ar  
    76    44    45 1   
    77    44    46 1   
    78    47    81 1   
    79    48    49 2   
    80    48    50 1   
    81    50    51 1   
    82    50    82 1   
    83    51    52 ar  
    84    51    56 ar  
    85    52    53 ar  
    86    52    83 1   
    87    53    54 ar  
    88    53    84 1   
    89    54    55 ar  
    90    54    85 1   
    91    55    56 ar  
    92    55    57 1   
    93    57    86 1   
@<TRIPOS>SUBSTRUCTURE
     1 51          1 TEMP              0 ****  ****    0 ROOT
