@<TRIPOS>MOLECULE
URE
  107   113     1     0     0
SMALL
bcc


@<TRIPOS>ATOM
      1 C           -0.1510     6.0170     3.5430 C          0 URE      -0.225100
      2 C1          -0.1410     5.3350     2.1990 C           0 URE       0.595100
      3 O            0.8840     4.8620     1.7700 O           0 URE      -0.610100
      4 C2          -1.4090     5.2430     1.3910 C          0 URE      -0.161400
      5 C3          -1.1250     4.5090     0.0790 C          0 URE       0.079500
      6 S           -2.6820     4.2690    -0.8250 S          0 URE      -0.308200
      7 C4          -3.8130     4.0330     0.5660 C          0 URE      -0.010300
      8 C5          -5.1250     3.4150     0.0670 C          0 URE      -0.023800
      9 N           -5.1400     1.9730     0.4210 N           0 URE      -0.507900
     10 C6          -5.8540     1.1790    -0.4160 C           0 URE       0.663200
     11 O1          -6.5560     1.6940    -1.2650 O           0 URE      -0.645600
     12 C7          -5.8030    -0.2770    -0.3260 C          0 URE      -0.099600
     13 C8          -5.7790    -1.0750    -1.5010 C          0 URE      -0.014000
     14 C9          -6.1850    -0.5450    -2.7320 C          0 URE      -0.117500
     15 C10         -6.0930    -1.2990    -3.8580 C          0 URE      -0.139250
     16 C11         -5.5960    -2.6050    -3.8040 C          0 URE      -0.143750
     17 C12         -5.1950    -3.1820    -2.6360 C          0 URE      -0.111750
     18 C13         -5.2880    -2.4580    -1.4370 C          0 URE      -0.017500
     19 C14         -4.9190    -3.0110    -0.1910 C          0 URE      -0.095100
     20 C15         -5.3690    -2.3550     0.9870 C          0 URE      -0.017500
     21 C16         -5.3900    -3.0170     2.2230 C          0 URE      -0.111750
     22 C17         -5.7860    -2.3510     3.3430 C          0 URE      -0.143750
     23 C18         -6.1640    -1.0070     3.2850 C          0 URE      -0.139250
     24 C19         -6.1670    -0.3090     2.1130 C          0 URE      -0.117500
     25 C20         -5.7950    -0.9520     0.9260 C          0 URE      -0.014000
     26 C21         -4.0000    -4.1460    -0.0790 C           0 URE       0.665700
     27 O2          -4.1290    -4.9450     0.8280 O           0 URE      -0.637100
     28 N1          -3.0050    -4.3070    -0.9890 N           0 URE      -0.499400
     29 C22         -2.0520    -5.4100    -0.7190 C          0 URE      -0.021300
     30 C23         -0.6380    -4.9060    -1.0180 C          0 URE       0.024200
     31 S1           0.5000    -5.4510     0.2830 S          0 URE      -0.307600
     32 S2           2.2950    -5.2340    -0.6890 S          0 URE      -0.307600
     33 C24          3.3540    -4.7410     0.6970 C          0 URE       0.024200
     34 C25          4.7370    -4.3530     0.1610 C          0 URE      -0.021300
     35 N2           4.6950    -2.9370    -0.2660 N           0 URE      -0.499400
     36 C26          5.6900    -2.1500     0.2270 C           0 URE       0.665700
     37 O3           6.5260    -2.6230     0.9730 O           0 URE      -0.637100
     38 C27          5.7530    -0.7360    -0.1370 C          0 URE      -0.095100
     39 C28          5.6140    -0.2830    -1.4650 C          0 URE      -0.017500
     40 C29          5.7810    -1.1520    -2.5540 C          0 URE      -0.111750
     41 C30          5.6560    -0.6800    -3.8240 C          0 URE      -0.143750
     42 C31          5.3380     0.6570    -4.0700 C          0 URE      -0.139250
     43 C32          5.1420     1.5450    -3.0560 C          0 URE      -0.117500
     44 C33          5.2800     1.1290    -1.7250 C          0 URE      -0.014000
     45 C34          5.0980     2.0180    -0.6430 C          0 URE      -0.099600
     46 C35          5.5960     1.6340     0.6310 C          0 URE      -0.014000
     47 C36          5.7360     2.5570     1.6750 C          0 URE      -0.117500
     48 C37          6.1870     2.1430     2.8910 C          0 URE      -0.139250
     49 C38          6.5100     0.8060     3.1320 C          0 URE      -0.143750
     50 C39          6.3930    -0.1450     2.1620 C          0 URE      -0.111750
     51 C40          5.9340     0.2310     0.8900 C          0 URE      -0.017500
     52 C41          4.3150     3.2510    -0.7750 C           0 URE       0.663200
     53 O4           4.5430     4.1970    -0.0450 O           0 URE      -0.645600
     54 N3           3.3310     3.3390    -1.7150 N           0 URE      -0.507900
     55 C42          2.5030     4.5660    -1.6840 C          0 URE      -0.023800
     56 C43          1.0340     4.1460    -1.6410 C          0 URE      -0.010300
     57 S3           0.0320     5.4850    -0.9190 S          0 URE      -0.308200
     58 C44          2.8370     5.3750    -0.4570 C           0 URE       0.907100
     59 O5           3.2400     6.5190    -0.5720 O           0 URE      -0.838550
     60 O6           2.7030     4.8840     0.6520 O           0 URE      -0.838550
     61 C45          5.7670    -4.5240     1.2480 C           0 URE       0.887100
     62 O7           6.8040    -5.1220     1.0160 O           0 URE      -0.784800
     63 O8           5.5630    -4.0650     2.3590 O           0 URE      -0.784800
     64 C46         -2.1490    -5.8230     0.7270 C           0 URE       0.887100
     65 O9          -2.3380    -6.9920     1.0160 O           0 URE      -0.784800
     66 O10         -2.0380    -4.9880     1.6080 O           0 URE      -0.784800
     67 C47         -6.2920     4.1080     0.7220 C           0 URE       0.907100
     68 O11         -6.7920     5.0880     0.1960 O           0 URE      -0.838550
     69 O12         -6.7350     3.6890     1.7770 O           0 URE      -0.838550
     70 H            0.8490     5.9850     3.9750 H          0 URE       0.086700
     71 H1          -0.4610     7.0550     3.4210 H          0 URE       0.086700
     72 H2          -0.8490     5.5050     4.2050 H          0 URE       0.086700
     73 H3          -2.1630     4.6970     1.9580 H          0 URE       0.071200
     74 H4          -1.7750     6.2470     1.1740 H          0 URE       0.071200
     75 H5          -0.6810     3.5380     0.2970 H          0 URE       0.150700
     76 H6          -3.3550     3.3670     1.2980 H          0 URE       0.073450
     77 H7          -4.0210     4.9960     1.0330 H          0 URE       0.073450
     78 H8          -5.1920     3.5260    -1.0150 H          0 URE       0.079200
     79 H9          -4.6720     1.6240     1.1960 H          0 URE       0.319000
     80 H10         -6.5710     0.4620    -2.7850 H          0 URE       0.162750
     81 H11         -6.4080    -0.8860    -4.8050 H          0 URE       0.120750
     82 H12         -5.5270    -3.1750    -4.7180 H          0 URE       0.121750
     83 H13         -4.8080    -4.1900    -2.6330 H          0 URE       0.174250
     84 H14         -5.0920    -4.0530     2.2860 H          0 URE       0.174250
     85 H15         -5.8090    -2.8700     4.2900 H          0 URE       0.121750
     86 H16         -6.4630    -0.5060     4.1940 H          0 URE       0.120750
     87 H17         -6.4560     0.7320     2.1010 H          0 URE       0.162750
     88 H18         -2.9220    -3.7350    -1.7680 H          0 URE       0.309500
     89 H19         -2.2820    -6.2610    -1.3610 H          0 URE       0.091200
     90 H20         -0.3080    -5.3030    -1.9780 H          0 URE       0.061700
     91 H21         -0.6440    -3.8170    -1.0610 H          0 URE       0.061700
     92 H22          2.9100    -3.8890     1.2100 H          0 URE       0.061700
     93 H23          3.4540    -5.5740     1.3930 H          0 URE       0.061700
     94 H24          4.9900    -4.9850    -0.6900 H          0 URE       0.091200
     95 H25          4.0070    -2.5930    -0.8570 H          0 URE       0.309500
     96 H26          6.0090    -2.1940    -2.3850 H          0 URE       0.174250
     97 H27          5.8050    -1.3520    -4.6570 H          0 URE       0.121750
     98 H28          5.2460     0.9970    -5.0910 H          0 URE       0.120750
     99 H29          4.8810     2.5700    -3.2780 H          0 URE       0.162750
    100 H30          5.4880     3.5960     1.5160 H          0 URE       0.162750
    101 H31          6.2970     2.8640     3.6880 H          0 URE       0.120750
    102 H32          6.8630     0.5180     4.1110 H          0 URE       0.121750
    103 H33          6.6480    -1.1740     2.3700 H          0 URE       0.174250
    104 H34          3.1830     2.6370    -2.3680 H          0 URE       0.319000
    105 H35          2.6900     5.1600    -2.5790 H          0 URE       0.079200
    106 H36          0.6870     3.9390    -2.6530 H          0 URE       0.073450
    107 H37          0.9320     3.2470    -1.0340 H          0 URE       0.073450
@<TRIPOS>BOND
     1     1     2 1   
     2     1    70 1   
     3     1    71 1   
     4     1    72 1   
     5     2     3 2   
     6     2     4 1   
     7     4     5 1   
     8     4    73 1   
     9     4    74 1   
    10     5     6 1   
    11     5    57 1   
    12     5    75 1   
    13     6     7 1   
    14     7     8 1   
    15     7    76 1   
    16     7    77 1   
    17     8     9 1   
    18     8    67 1   
    19     8    78 1   
    20     9    10 1   
    21     9    79 1   
    22    10    11 2   
    23    10    12 1   
    24    12    13 ar  
    25    12    25 ar  
    26    13    14 ar  
    27    13    18 ar  
    28    14    15 ar  
    29    14    80 1   
    30    15    16 ar  
    31    15    81 1   
    32    16    17 ar  
    33    16    82 1   
    34    17    18 ar  
    35    17    83 1   
    36    18    19 ar  
    37    19    20 ar  
    38    19    26 1   
    39    20    21 ar  
    40    20    25 ar  
    41    21    22 ar  
    42    21    84 1   
    43    22    23 ar  
    44    22    85 1   
    45    23    24 ar  
    46    23    86 1   
    47    24    25 ar  
    48    24    87 1   
    49    26    27 2   
    50    26    28 1   
    51    28    29 1   
    52    28    88 1   
    53    29    30 1   
    54    29    64 1   
    55    29    89 1   
    56    30    31 1   
    57    30    90 1   
    58    30    91 1   
    59    31    32 1   
    60    32    33 1   
    61    33    34 1   
    62    33    92 1   
    63    33    93 1   
    64    34    35 1   
    65    34    61 1   
    66    34    94 1   
    67    35    36 1   
    68    35    95 1   
    69    36    37 2   
    70    36    38 1   
    71    38    39 ar  
    72    38    51 ar  
    73    39    40 ar  
    74    39    44 ar  
    75    40    41 ar  
    76    40    96 1   
    77    41    42 ar  
    78    41    97 1   
    79    42    43 ar  
    80    42    98 1   
    81    43    44 ar  
    82    43    99 1   
    83    44    45 ar  
    84    45    46 ar  
    85    45    52 1   
    86    46    47 ar  
    87    46    51 ar  
    88    47    48 ar  
    89    47   100 1   
    90    48    49 ar  
    91    48   101 1   
    92    49    50 ar  
    93    49   102 1   
    94    50    51 ar  
    95    50   103 1   
    96    52    53 2   
    97    52    54 1   
    98    54    55 1   
    99    54   104 1   
   100    55    56 1   
   101    55    58 1   
   102    55   105 1   
   103    56    57 1   
   104    56   106 1   
   105    56   107 1   
   106    58    59 1   
   107    58    60 1   
   108    61    62 1   
   109    61    63 1   
   110    64    65 1   
   111    64    66 1   
   112    67    68 1   
   113    67    69 1   
@<TRIPOS>SUBSTRUCTURE
     1 URE         1 TEMP              0 ****  ****    0 ROOT
