@<TRIPOS>MOLECULE
ASB
  132   138     1     0     0
SMALL
bcc


@<TRIPOS>ATOM
      1 C1          -4.1020    -4.1950     1.6910 C          1 ASB      -0.060300
      2 C2          -3.0370    -3.8290     0.6950 C          1 ASB      -0.081550
      3 C3          -1.6990    -4.0920     1.0740 C          1 ASB      -0.103000
      4 C4          -0.6180    -3.8980     0.2000 C          1 ASB      -0.038750
      5 C5          -0.8960    -3.4110    -1.0790 C          1 ASB      -0.109250
      6 C6          -2.2080    -3.1180    -1.4630 C          1 ASB      -0.134000
      7 C7          -3.2860    -3.2950    -0.5800 C          1 ASB       0.032600
      8 N1          -4.5590    -2.9850    -1.1100 N           1 ASB      -0.448600
      9 C8          -5.6550    -2.4990    -0.4360 C           1 ASB       0.757100
     10 O1          -5.6910    -2.0580     0.7040 O           1 ASB      -0.632850
     11 N2          -6.7700    -2.5370    -1.2540 N           1 ASB      -0.567400
     12 C9          -8.0700    -2.1670    -0.7290 C          1 ASB       0.137550
     13 C10         -8.1970    -0.6610    -0.5340 C          1 ASB      -0.149050
     14 C11         -8.1380     0.2150    -1.6420 C          1 ASB       0.102700
     15 C12         -8.0580    -0.3210    -3.0570 C          1 ASB      -0.104800
     16 C13         -8.1040     1.6110    -1.4180 C          1 ASB      -0.149050
     17 C14         -7.9270     2.5810    -2.5860 C          1 ASB       0.137550
     18 N3          -6.8360     3.5270    -2.4120 N           1 ASB      -0.567400
     19 C15         -5.5340     3.0630    -2.3080 C           1 ASB       0.757100
     20 O2          -5.2770     1.8690    -2.2520 O           1 ASB      -0.632850
     21 N4          -4.6470     4.1130    -2.2090 N           1 ASB      -0.448600
     22 C16         -3.2550     4.0540    -1.9620 C          1 ASB       0.032600
     23 C17         -2.5770     2.8440    -1.7870 C          1 ASB      -0.134000
     24 C18         -1.2100     2.8180    -1.4890 C          1 ASB      -0.109250
     25 C19         -0.4740     4.0010    -1.3610 C          1 ASB      -0.038750
     26 C20         -1.1480     5.2130    -1.5600 C          1 ASB      -0.103000
     27 C21         -2.5260     5.2580    -1.8610 C          1 ASB      -0.081550
     28 C22         -3.1660     6.6090    -2.0430 C          1 ASB      -0.060300
     29 C23          0.9520     3.9630    -1.0050 C          1 ASB      -0.038750
     30 C24          1.3770     3.3160     0.1590 C          1 ASB      -0.109250
     31 C25          2.7320     3.2510     0.4960 C          1 ASB      -0.134000
     32 C26          3.7080     3.8360    -0.3180 C          1 ASB       0.032600
     33 N5           5.0880     3.7130    -0.0270 N           1 ASB      -0.448600
     34 C27          5.6380     3.2700     1.1550 C           1 ASB       0.757100
     35 O3           5.0670     3.1730     2.2320 O           1 ASB      -0.632850
     36 N6           6.9500     2.8820     0.9820 N           1 ASB      -0.567400
     37 C28          7.6690     2.1790     2.0270 C          1 ASB       0.137550
     38 C29          7.7440     0.6820     1.7270 C          1 ASB      -0.149050
     39 C30          6.6770    -0.1830     2.0580 C          1 ASB       0.102700
     40 C31          5.5040     0.2850     2.8940 C          1 ASB      -0.104800
     41 C32          6.6810    -1.5010     1.5490 C          1 ASB      -0.149050
     42 C33          5.4480    -2.3870     1.6970 C          1 ASB       0.137550
     43 N7           5.6100    -3.3290     2.7840 N           1 ASB      -0.567400
     44 C34          5.5720    -4.6760     2.6430 C           1 ASB       0.757100
     45 O4           6.4030    -5.3490     3.2490 O           1 ASB      -0.632850
     46 N8           4.7180    -5.2540     1.7650 N           1 ASB      -0.448600
     47 C35          3.4080    -4.8860     1.3800 C          1 ASB       0.032600
     48 C36          2.6600    -3.9470     2.0990 C          1 ASB      -0.134000
     49 C37          1.3550    -3.6200     1.7130 C          1 ASB      -0.109250
     50 C38          0.7560    -4.2290     0.6060 C          1 ASB      -0.038750
     51 C39          1.5020    -5.1900    -0.0960 C          1 ASB      -0.103000
     52 C40          2.8170    -5.5320     0.2790 C          1 ASB      -0.081550
     53 C41          3.5390    -6.5860    -0.5170 C          1 ASB      -0.060300
     54 C42          7.8460    -1.9990     0.9160 C          1 ASB       0.060150
     55 C43          7.9150    -3.4200     0.4050 C          1 ASB      -0.099800
     56 N9           8.9470    -1.1930     0.8060 N          1 ASB      -0.000100
     57 C44         10.2590    -1.7980     0.4420 C          1 ASB      -0.032900
     58 C45          8.8740     0.1520     1.0550 C          1 ASB       0.060150
     59 C46         10.0130     1.0490     0.6270 C          1 ASB      -0.099800
     60 C47          3.3020     4.5020    -1.4920 C          1 ASB      -0.081550
     61 C48          4.2820     5.1580    -2.4270 C          1 ASB      -0.060300
     62 C49          1.9290     4.5580    -1.8170 C          1 ASB      -0.103000
     63 C50         -8.1880     2.1010    -0.0920 C          1 ASB       0.060150
     64 C51         -8.2840     3.5820     0.1870 C          1 ASB      -0.099800
     65 N10         -8.1670     1.2260     0.9590 N          1 ASB      -0.000100
     66 C52         -7.9140     1.7450     2.3300 C          1 ASB      -0.032900
     67 C53         -8.2840    -0.1240     0.7730 C          1 ASB       0.060150
     68 C54         -8.5150    -1.0150     1.9720 C          1 ASB      -0.099800
     69 H1          -3.7680    -5.0180     2.3330 H          1 ASB       0.051950
     70 H2          -4.3330    -3.3430     2.3350 H          1 ASB       0.051950
     71 H3          -5.0090    -4.5570     1.1960 H          1 ASB       0.051950
     72 H4          -1.5040    -4.5020     2.0650 H          1 ASB       0.146250
     73 H5          -0.0900    -3.2480    -1.7910 H          1 ASB       0.141250
     74 H6          -2.3700    -2.7330    -2.4670 H          1 ASB       0.151500
     75 H7          -4.5750    -2.7410    -2.0920 H          1 ASB       0.322250
     76 H8          -6.7590    -3.3140    -1.9000 H          1 ASB       0.311750
     77 H9          -8.2160    -2.7410     0.1890 H          1 ASB       0.084450
     78 H10         -8.8400    -2.5190    -1.4240 H          1 ASB       0.084450
     79 H11         -7.0390    -0.2150    -3.4420 H          1 ASB       0.090367
     80 H12         -8.7590     0.2110    -3.7080 H          1 ASB       0.090367
     81 H13         -8.3440    -1.3710    -3.1430 H          1 ASB       0.090367
     82 H14         -8.8520     3.1550    -2.7160 H          1 ASB       0.084450
     83 H15         -7.7300     2.0770    -3.5350 H          1 ASB       0.084450
     84 H16         -6.9150     4.3640    -2.9740 H          1 ASB       0.311750
     85 H17         -5.0510     5.0340    -2.2600 H          1 ASB       0.322250
     86 H18         -3.0810     1.8860    -1.8630 H          1 ASB       0.151500
     87 H19         -0.7240     1.8530    -1.3560 H          1 ASB       0.141250
     88 H20         -0.5920     6.1460    -1.4580 H          1 ASB       0.146250
     89 H21         -3.6440     6.6740    -3.0260 H          1 ASB       0.051950
     90 H22         -3.9090     6.7850    -1.2600 H          1 ASB       0.051950
     91 H23         -2.4290     7.4180    -1.9880 H          1 ASB       0.051950
     92 H24          0.6510     2.8540     0.8250 H          1 ASB       0.141250
     93 H25          2.9910     2.7190     1.4060 H          1 ASB       0.151500
     94 H26          5.7290     4.1420    -0.6740 H          1 ASB       0.322250
     95 H27          7.2800     2.8180     0.0330 H          1 ASB       0.311750
     96 H28          8.6670     2.6230     2.0840 H          1 ASB       0.084450
     97 H29          7.2330     2.3740     3.0100 H          1 ASB       0.084450
     98 H30          5.7710     1.0910     3.5800 H          1 ASB       0.090367
     99 H31          4.6800     0.6000     2.2490 H          1 ASB       0.090367
    100 H32          5.1550    -0.5140     3.5570 H          1 ASB       0.090367
    101 H33          4.5520    -1.7950     1.9000 H          1 ASB       0.084450
    102 H34          5.2430    -2.8900     0.7470 H          1 ASB       0.084450
    103 H35          6.2270    -3.0570     3.5390 H          1 ASB       0.311750
    104 H36          4.9720    -6.2150     1.5660 H          1 ASB       0.322250
    105 H37          3.0520    -3.4840     3.0000 H          1 ASB       0.151500
    106 H38          0.8010    -2.8870     2.2970 H          1 ASB       0.141250
    107 H39          1.0400    -5.6980    -0.9430 H          1 ASB       0.146250
    108 H40          4.5150    -6.2150    -0.8470 H          1 ASB       0.051950
    109 H41          3.6750    -7.4880     0.0880 H          1 ASB       0.051950
    110 H42          2.9810    -6.8670    -1.4160 H          1 ASB       0.051950
    111 H43          8.6240    -3.5150    -0.4230 H          1 ASB       0.093450
    112 H44          8.2190    -4.0920     1.2120 H          1 ASB       0.093450
    113 H45          6.9640    -3.7600    -0.0090 H          1 ASB       0.093450
    114 H46         10.3200    -2.8150     0.8360 H          1 ASB       0.094533
    115 H47         11.0680    -1.2380     0.9180 H          1 ASB       0.094533
    116 H48         10.3440    -1.7820    -0.6460 H          1 ASB       0.094533
    117 H49         10.6040     0.6090    -0.1810 H          1 ASB       0.093450
    118 H50          9.6400     1.9920     0.2160 H          1 ASB       0.093450
    119 H51         10.6680     1.2550     1.4780 H          1 ASB       0.093450
    120 H52          4.9510     4.4080    -2.8620 H          1 ASB       0.051950
    121 H53          4.8710     5.9110    -1.8930 H          1 ASB       0.051950
    122 H54          3.7760     5.6670    -3.2540 H          1 ASB       0.051950
    123 H55          1.6170     5.0620    -2.7310 H          1 ASB       0.146250
    124 H56         -7.2860     4.0140     0.3030 H          1 ASB       0.093450
    125 H57         -8.8650     3.7760     1.0950 H          1 ASB       0.093450
    126 H58         -8.8180     4.1110    -0.6070 H          1 ASB       0.093450
    127 H59         -7.3370     1.0140     2.9020 H          1 ASB       0.094533
    128 H60         -8.8820     1.9470     2.7940 H          1 ASB       0.094533
    129 H61         -7.2990     2.6460     2.2820 H          1 ASB       0.094533
    130 H62         -9.2390    -1.8030     1.7390 H          1 ASB       0.093450
    131 H63         -7.5790    -1.4620     2.3120 H          1 ASB       0.093450
    132 H64         -8.9680    -0.4710     2.8060 H          1 ASB       0.093450
@<TRIPOS>BOND
     1     1     2 1   
     2     1    69 1   
     3     1    70 1   
     4     1    71 1   
     5     2     3 ar  
     6     2     7 ar  
     7     3     4 ar  
     8     3    72 1   
     9     4     5 ar  
    10     4    50 1   
    11     5     6 ar  
    12     5    73 1   
    13     6     7 ar  
    14     6    74 1   
    15     7     8 1   
    16     8     9 1   
    17     8    75 1   
    18     9    10 2   
    19     9    11 1   
    20    11    12 1   
    21    11    76 1   
    22    12    13 1   
    23    12    77 1   
    24    12    78 1   
    25    13    14 ar  
    26    13    67 ar  
    27    14    15 1   
    28    14    16 ar  
    29    15    79 1   
    30    15    80 1   
    31    15    81 1   
    32    16    17 1   
    33    16    63 ar  
    34    17    18 1   
    35    17    82 1   
    36    17    83 1   
    37    18    19 1   
    38    18    84 1   
    39    19    20 2   
    40    19    21 1   
    41    21    22 1   
    42    21    85 1   
    43    22    23 ar  
    44    22    27 ar  
    45    23    24 ar  
    46    23    86 1   
    47    24    25 ar  
    48    24    87 1   
    49    25    26 ar  
    50    25    29 1   
    51    26    27 ar  
    52    26    88 1   
    53    27    28 1   
    54    28    89 1   
    55    28    90 1   
    56    28    91 1   
    57    29    30 ar  
    58    29    62 ar  
    59    30    31 ar  
    60    30    92 1   
    61    31    32 ar  
    62    31    93 1   
    63    32    33 1   
    64    32    60 ar  
    65    33    34 1   
    66    33    94 1   
    67    34    35 2   
    68    34    36 1   
    69    36    37 1   
    70    36    95 1   
    71    37    38 1   
    72    37    96 1   
    73    37    97 1   
    74    38    39 ar  
    75    38    58 ar  
    76    39    40 1   
    77    39    41 ar  
    78    40    98 1   
    79    40    99 1   
    80    40   100 1   
    81    41    42 1   
    82    41    54 ar  
    83    42    43 1   
    84    42   101 1   
    85    42   102 1   
    86    43    44 1   
    87    43   103 1   
    88    44    45 2   
    89    44    46 1   
    90    46    47 1   
    91    46   104 1   
    92    47    48 ar  
    93    47    52 ar  
    94    48    49 ar  
    95    48   105 1   
    96    49    50 ar  
    97    49   106 1   
    98    50    51 ar  
    99    51    52 ar  
   100    51   107 1   
   101    52    53 1   
   102    53   108 1   
   103    53   109 1   
   104    53   110 1   
   105    54    55 1   
   106    54    56 2   
   107    55   111 1   
   108    55   112 1   
   109    55   113 1   
   110    56    57 1   
   111    56    58 1   
   112    57   114 1   
   113    57   115 1   
   114    57   116 1   
   115    58    59 1   
   116    59   117 1   
   117    59   118 1   
   118    59   119 1   
   119    60    61 1   
   120    60    62 ar  
   121    61   120 1   
   122    61   121 1   
   123    61   122 1   
   124    62   123 1   
   125    63    64 1   
   126    63    65 2   
   127    64   124 1   
   128    64   125 1   
   129    64   126 1   
   130    65    66 1   
   131    65    67 1   
   132    66   127 1   
   133    66   128 1   
   134    66   129 1   
   135    67    68 1   
   136    68   130 1   
   137    68   131 1   
   138    68   132 1   
@<TRIPOS>SUBSTRUCTURE
     1 ASB         1 TEMP              0 ****  ****    0 ROOT
