@<TRIPOS>MOLECULE
-args
   38    42     1     0     0
SMALL
bcc


@<TRIPOS>ATOM
      1 C1          -1.6900     3.9760     0.0980 C          1 -arg     -0.160000
      2 C2          -0.4140     4.2900     0.3130 C          1 -arg     -0.246600
      3 C3           0.3500     3.0630     0.3180 C          1 -arg      0.434900
      4 C4           1.6830     3.0850     0.5160 C          1 -arg     -0.181600
      5 C5           2.5420     1.7770     0.5280 C          1 -arg      0.097500
      6 C6           3.9030     1.6930     0.7210 C          1 -arg     -0.151000
      7 C7           4.2540     0.3160     0.6530 C          1 -arg     -0.151000
      8 C8           3.0940    -0.3890     0.4210 C          1 -arg      0.097500
      9 C9           2.9630    -1.9410     0.2660 C          1 -arg     -0.181600
     10 C10          1.7770    -2.5390     0.0400 C          1 -arg      0.434900
     11 C11          1.6900    -3.9760    -0.0980 C          1 -arg     -0.246600
     12 C12          0.4140    -4.2900    -0.3130 C          1 -arg     -0.160000
     13 C13         -0.3500    -3.0630    -0.3180 C          1 -arg      0.114600
     14 C14         -1.6830    -3.0850    -0.5160 C          1 -arg     -0.083200
     15 C15         -2.5420    -1.7770    -0.5280 C          1 -arg     -0.020600
     16 C16         -3.9030    -1.6930    -0.7210 C          1 -arg     -0.151000
     17 C17         -4.2540    -0.3160    -0.6530 C          1 -arg     -0.151000
     18 C18         -3.0940     0.3890    -0.4210 C          1 -arg     -0.020600
     19 C19         -2.9630     1.9410    -0.2660 C          1 -arg     -0.083200
     20 C20         -1.7770     2.5390    -0.0400 C          1 -arg      0.114600
     21 N1          -0.5190     2.0390     0.1010 N          1 -arg     -0.630300
     22 N2          -2.0580    -0.5070    -0.3470 N          1 -arg     -0.173600
     23 N3           0.5190    -2.0390    -0.1010 N          1 -arg     -0.630300
     24 N4           2.0580     0.5070     0.3470 N          1 -arg     -0.541300
     25 H1          -2.5160     4.6610     0.0360 H          1 -arg      0.152500
     26 H2          -0.0140     5.2770     0.4580 H          1 -arg      0.152500
     27 H3           2.1900     4.0290     0.6730 H          1 -arg      0.145500
     28 H4           4.5680     2.5260     0.8910 H          1 -arg      0.158000
     29 H5           5.2400    -0.1100     0.7610 H          1 -arg      0.158000
     30 H6           3.8620    -2.5390     0.3470 H          1 -arg      0.145500
     31 H7           2.5160    -4.6610    -0.0360 H          1 -arg      0.152500
     32 H8           0.0140    -5.2770    -0.4580 H          1 -arg      0.152500
     33 H9          -2.1900    -4.0290    -0.6730 H          1 -arg      0.145500
     34 H10         -4.5680    -2.5260    -0.8910 H          1 -arg      0.158000
     35 H11         -5.2400     0.1100    -0.7610 H          1 -arg      0.158000
     36 H12         -3.8620     2.5390    -0.3470 H          1 -arg      0.145500
     37 H13         -1.0820    -0.2670    -0.1820 H          1 -arg      0.343700
     38 H14          1.0820     0.2670     0.1820 H          1 -arg      0.498800
@<TRIPOS>BOND
     1     1     2 2   
     2     1    20 1   
     3     1    25 1   
     4     2     3 1   
     5     2    26 1   
     6     3     4 1   
     7     3    21 2   
     8     4     5 2   
     9     4    27 1   
    10     5     6 1   
    11     5    24 1   
    12     6     7 2   
    13     6    28 1   
    14     7     8 1   
    15     7    29 1   
    16     8     9 2   
    17     8    24 1   
    18     9    10 1   
    19     9    30 1   
    20    10    11 1   
    21    10    23 2   
    22    11    12 2   
    23    11    31 1   
    24    12    13 1   
    25    12    32 1   
    26    13    14 2   
    27    13    23 1   
    28    14    15 1   
    29    14    33 1   
    30    15    16 2   
    31    15    22 1   
    32    16    17 1   
    33    16    34 1   
    34    17    18 2   
    35    17    35 1   
    36    18    19 1   
    37    18    22 1   
    38    19    20 2   
    39    19    36 1   
    40    20    21 1   
    41    22    37 1   
    42    24    38 1   
@<TRIPOS>SUBSTRUCTURE
     1 -arg        1 TEMP              0 ****  ****    0 ROOT
