@<TRIPOS>MOLECULE
40
   94   101     1     0     0
SMALL
bcc


@<TRIPOS>ATOM
      1 O1           1.4870    -6.2970    -0.0960 O           1 40       -0.607500
      2 C1           1.7490    -5.2160     0.4280 C           1 40        0.723850
      3 C2           0.7260    -4.1440     0.4370 C          1 40       -0.140600
      4 C3          -0.4900    -4.3740    -0.1940 C          1 40       -0.042500
      5 C4          -1.4950    -3.4110    -0.1350 C          1 40       -0.128500
      6 C5          -1.3420    -2.1890     0.5640 C          1 40        0.008750
      7 C6          -2.3930    -1.2190     0.6790 C          1 40        0.008750
      8 C7          -3.6710    -1.3980     0.0950 C          1 40       -0.128500
      9 C8          -4.7060    -0.4810     0.2610 C          1 40       -0.042500
     10 C9          -4.5040     0.6650     1.0200 C          1 40       -0.140600
     11 C10         -5.6460     1.5870     1.2370 C           1 40        0.723850
     12 O2          -6.7440     1.2850     0.7770 O           1 40       -0.607500
     13 N1          -5.4020     2.7210     2.0050 N           1 40       -0.482900
     14 C11         -6.5210     3.6260     2.2810 C          1 40        0.086000
     15 C12         -6.3790     4.9920     1.6010 C          1 40        0.106400
     16 O3          -6.4070     4.8340     0.1830 O          1 40       -0.422600
     17 C13         -6.2140     6.0600    -0.5310 C          1 40        0.110900
     18 C14         -4.7430     6.4830    -0.5790 C          1 40        0.106900
     19 O4          -4.0020     5.5190    -1.3300 O          1 40       -0.421600
     20 C15         -2.5970     5.6750    -1.1590 C          1 40        0.110900
     21 C16         -1.8830     4.6390    -2.0160 C          1 40        0.095400
     22 O5          -0.4810     4.6780    -1.7470 O          1 40       -0.429600
     23 C17          0.2230     3.7300    -2.5590 C          1 40        0.130400
     24 C18          1.6620     3.6490    -2.0630 C          1 40       -0.027800
     25 S1           2.7100     2.5130    -3.0330 S          1 40       -0.165600
     26 S2           1.7300     0.7080    -2.8740 S          1 40       -0.165600
     27 C19          2.2650     0.0890    -1.2390 C          1 40       -0.027800
     28 C20          3.6940    -0.4420    -1.2430 C          1 40        0.130400
     29 O6           3.7340    -1.6730    -1.9670 O          1 40       -0.429600
     30 C21          5.0630    -2.1870    -2.0660 C          1 40        0.095400
     31 C22          5.0570    -3.3890    -3.0070 C          1 40        0.110900
     32 O7           6.3580    -3.8910    -3.3080 O          1 40       -0.421600
     33 C23          7.0680    -4.4770    -2.2130 C          1 40        0.106900
     34 C24          6.3700    -5.7050    -1.6270 C          1 40        0.110900
     35 O8           5.4620    -5.2920    -0.5980 O          1 40       -0.422600
     36 C25          4.6140    -6.3680    -0.1890 C          1 40        0.106400
     37 C26          3.9340    -6.0320     1.1410 C          1 40        0.086000
     38 N2           2.9580    -4.9440     1.0590 N           1 40       -0.482900
     39 C27          3.2640    -3.7330     1.6680 C           1 40        0.723850
     40 O9           4.3400    -3.4760     2.2010 O           1 40       -0.607500
     41 C28          2.1890    -2.7130     1.7080 C          1 40       -0.140600
     42 C29          2.4230    -1.5200     2.3840 C          1 40       -0.042500
     43 C30          1.4170    -0.5610     2.4740 C          1 40       -0.128500
     44 C31          0.1370    -0.7420     1.8960 C          1 40        0.008750
     45 C32         -0.9180     0.2230     2.0190 C          1 40        0.008750
     46 C33         -0.7730     1.4340     2.7390 C          1 40       -0.128500
     47 C34         -1.8190     2.3390     2.9030 C          1 40       -0.042500
     48 C35         -3.0620     2.0720     2.3410 C          1 40       -0.140600
     49 C36         -4.1740     3.0210     2.5840 C           1 40        0.723850
     50 O10         -3.9790     4.0050     3.2940 O           1 40       -0.607500
     51 C37         -3.2560     0.9140     1.5910 C          1 40        0.018500
     52 C38         -2.1830    -0.0270     1.4230 C          1 40       -0.032000
     53 C39         -0.0860    -1.9520     1.1850 C          1 40       -0.032000
     54 C40          0.9530    -2.9420     1.1060 C          1 40        0.018500
     55 H1          -0.6730    -5.3070    -0.7250 H          1 40        0.168750
     56 H2          -2.4220    -3.6630    -0.6440 H          1 40        0.146000
     57 H3          -3.9070    -2.2750    -0.5010 H          1 40        0.146000
     58 H4          -5.6750    -0.6800    -0.1960 H          1 40        0.168750
     59 H5          -6.5720     3.7730     3.3670 H          1 40        0.083700
     60 H6          -7.4640     3.1660     1.9680 H          1 40        0.083700
     61 H7          -7.2210     5.6270     1.9000 H          1 40        0.045450
     62 H8          -5.4550     5.4850     1.9120 H          1 40        0.045450
     63 H9          -6.8350     6.8490    -0.0920 H          1 40        0.049950
     64 H10         -6.5690     5.8800    -1.5510 H          1 40        0.049950
     65 H11         -4.3270     6.5650     0.4300 H          1 40        0.053450
     66 H12         -4.6530     7.4550    -1.0770 H          1 40        0.053450
     67 H13         -2.2860     6.6850    -1.4510 H          1 40        0.062200
     68 H14         -2.3300     5.5320    -0.1050 H          1 40        0.062200
     69 H15         -2.2770     3.6400    -1.7910 H          1 40        0.049950
     70 H16         -2.0710     4.8410    -3.0780 H          1 40        0.049950
     71 H17          0.1870     4.0650    -3.6020 H          1 40        0.044200
     72 H18         -0.2750     2.7580    -2.4760 H          1 40        0.044200
     73 H19          2.1180     4.6440    -2.1050 H          1 40        0.092200
     74 H20          1.6870     3.3550    -1.0080 H          1 40        0.092200
     75 H21          2.1440     0.8840    -0.4970 H          1 40        0.092200
     76 H22          1.5750    -0.7190    -0.9840 H          1 40        0.092200
     77 H23          4.0050    -0.6410    -0.2110 H          1 40        0.044200
     78 H24          4.3940     0.2820    -1.6760 H          1 40        0.044200
     79 H25          5.7420    -1.4200    -2.4580 H          1 40        0.049950
     80 H26          5.4120    -2.4700    -1.0680 H          1 40        0.049950
     81 H27          4.6130    -3.0800    -3.9610 H          1 40        0.062200
     82 H28          4.4000    -4.1830    -2.6360 H          1 40        0.062200
     83 H29          7.2710    -3.7170    -1.4510 H          1 40        0.053450
     84 H30          8.0320    -4.7910    -2.6270 H          1 40        0.053450
     85 H31          5.8320    -6.2520    -2.4090 H          1 40        0.049950
     86 H32          7.1160    -6.3620    -1.1650 H          1 40        0.049950
     87 H33          3.8840    -6.5600    -0.9820 H          1 40        0.045450
     88 H34          5.2180    -7.2720    -0.0470 H          1 40        0.045450
     89 H35          3.4040    -6.9230     1.4990 H          1 40        0.083700
     90 H36          4.7000    -5.7890     1.8850 H          1 40        0.083700
     91 H37          3.3850    -1.3330     2.8600 H          1 40        0.168750
     92 H38          1.6670     0.3380     3.0310 H          1 40        0.146000
     93 H39          0.1650     1.7030     3.2180 H          1 40        0.146000
     94 H40         -1.6570     3.2450     3.4850 H          1 40        0.168750
@<TRIPOS>BOND
     1     1     2 2   
     2     2     3 1   
     3     2    38 1   
     4     3     4 ar  
     5     3    54 ar  
     6     4     5 ar  
     7     4    55 1   
     8     5     6 ar  
     9     5    56 1   
    10     6     7 ar  
    11     6    53 ar  
    12     7     8 ar  
    13     7    52 ar  
    14     8     9 ar  
    15     8    57 1   
    16     9    10 ar  
    17     9    58 1   
    18    10    11 1   
    19    10    51 ar  
    20    11    12 2   
    21    11    13 1   
    22    13    14 1   
    23    13    49 1   
    24    14    15 1   
    25    14    59 1   
    26    14    60 1   
    27    15    16 1   
    28    15    61 1   
    29    15    62 1   
    30    16    17 1   
    31    17    18 1   
    32    17    63 1   
    33    17    64 1   
    34    18    19 1   
    35    18    65 1   
    36    18    66 1   
    37    19    20 1   
    38    20    21 1   
    39    20    67 1   
    40    20    68 1   
    41    21    22 1   
    42    21    69 1   
    43    21    70 1   
    44    22    23 1   
    45    23    24 1   
    46    23    71 1   
    47    23    72 1   
    48    24    25 1   
    49    24    73 1   
    50    24    74 1   
    51    25    26 1   
    52    26    27 1   
    53    27    28 1   
    54    27    75 1   
    55    27    76 1   
    56    28    29 1   
    57    28    77 1   
    58    28    78 1   
    59    29    30 1   
    60    30    31 1   
    61    30    79 1   
    62    30    80 1   
    63    31    32 1   
    64    31    81 1   
    65    31    82 1   
    66    32    33 1   
    67    33    34 1   
    68    33    83 1   
    69    33    84 1   
    70    34    35 1   
    71    34    85 1   
    72    34    86 1   
    73    35    36 1   
    74    36    37 1   
    75    36    87 1   
    76    36    88 1   
    77    37    38 1   
    78    37    89 1   
    79    37    90 1   
    80    38    39 1   
    81    39    40 2   
    82    39    41 1   
    83    41    42 ar  
    84    41    54 ar  
    85    42    43 ar  
    86    42    91 1   
    87    43    44 ar  
    88    43    92 1   
    89    44    45 ar  
    90    44    53 ar  
    91    45    46 ar  
    92    45    52 ar  
    93    46    47 ar  
    94    46    93 1   
    95    47    48 ar  
    96    47    94 1   
    97    48    49 1   
    98    48    51 ar  
    99    49    50 2   
   100    51    52 ar  
   101    53    54 ar  
@<TRIPOS>SUBSTRUCTURE
     1 40          1 TEMP              0 ****  ****    0 ROOT
