@<TRIPOS>MOLECULE
UNL
   49    51     1     0     0
SMALL
bcc


@<TRIPOS>ATOM
      1 O1           0.7890     3.8130    -0.9230 O           1 UNL      -0.646100
      2 C1           0.2890     3.2150     0.0250 C           1 UNL       0.735100
      3 N1           0.9810     2.8580     1.1390 N           1 UNL      -0.523900
      4 C2           2.4310     2.9070     1.1540 C          1 UNL       0.129300
      5 C3           2.9610     1.5440     0.8110 C          1 UNL      -0.249600
      6 C4           3.2300     0.5970     1.8010 C          1 UNL      -0.082000
      7 C5           3.4870    -0.7210     1.4380 C          1 UNL      -0.225300
      8 C6           3.4700    -1.0580     0.0870 C          1 UNL       0.359600
      9 C7           3.3790    -2.5090    -0.3320 C          1 UNL       0.020700
     10 N2           1.9800    -2.8120    -0.5920 N           1 UNL      -0.495900
     11 C8           1.1710    -3.1470     0.4480 C           1 UNL       0.738100
     12 O2           1.5860    -3.5670     1.5250 O           1 UNL      -0.635100
     13 N3          -0.1630    -2.9900     0.2690 N           1 UNL      -0.578900
     14 C9          -0.9250    -2.5330    -0.8810 C          1 UNL       0.093000
     15 C10         -1.9900    -1.4960    -0.4780 C          1 UNL      -0.082700
     16 C11         -2.9290    -1.2300    -1.6650 C          1 UNL      -0.075400
     17 C12         -3.9960    -0.1950    -1.3260 C          1 UNL      -0.076400
     18 C13         -3.3760     1.1070    -0.8270 C          1 UNL      -0.078400
     19 C14         -2.4490     0.8630     0.3740 C          1 UNL      -0.097700
     20 C15         -1.8700     2.1800     0.9280 C          1 UNL       0.087000
     21 N4          -1.0230     2.8820    -0.0200 N           1 UNL      -0.547900
     22 C16         -1.3640    -0.1750     0.0220 C          1 UNL      -0.077400
     23 N5           3.2750    -0.1400    -0.8960 N          1 UNL      -0.681000
     24 C17          3.0300     1.1320    -0.5150 C          1 UNL       0.409200
     25 H1           0.5780     2.1260     1.6970 H          1 UNL       0.294500
     26 H2           2.7390     3.1940     2.1650 H          1 UNL       0.080700
     27 H3           2.8130     3.6630     0.4610 H          1 UNL       0.080700
     28 H4           3.1690     0.8580     2.8540 H          1 UNL       0.141000
     29 H5           3.5990    -1.4890     2.1990 H          1 UNL       0.154000
     30 H6           3.7960    -3.1800     0.4270 H          1 UNL       0.085200
     31 H7           3.9280    -2.6560    -1.2680 H          1 UNL       0.085200
     32 H8           1.5860    -2.1740    -1.2640 H          1 UNL       0.291500
     33 H9          -0.6860    -3.3400     1.0620 H          1 UNL       0.321500
     34 H10         -1.4120    -3.4250    -1.2900 H          1 UNL       0.050200
     35 H11         -0.2790    -2.1290    -1.6630 H          1 UNL       0.050200
     36 H12         -2.5880    -1.9170     0.3420 H          1 UNL       0.053700
     37 H13         -2.3480    -0.8810    -2.5280 H          1 UNL       0.046700
     38 H14         -3.4190    -2.1630    -1.9690 H          1 UNL       0.046700
     39 H15         -4.6080     0.0060    -2.2120 H          1 UNL       0.044700
     40 H16         -4.6680    -0.5980    -0.5590 H          1 UNL       0.044700
     41 H17         -2.8210     1.5720    -1.6500 H          1 UNL       0.045700
     42 H18         -4.1760     1.8020    -0.5470 H          1 UNL       0.045700
     43 H19         -3.0630     0.4350     1.1790 H          1 UNL       0.057700
     44 H20         -1.3400     1.9860     1.8630 H          1 UNL       0.050700
     45 H21         -2.6910     2.8660     1.1680 H          1 UNL       0.050700
     46 H22         -1.4620     3.2360    -0.8610 H          1 UNL       0.314500
     47 H23         -0.7480    -0.3660     0.9090 H          1 UNL       0.048700
     48 H24         -0.6950     0.2260    -0.7500 H          1 UNL       0.048700
     49 H25          2.8210     1.8230    -1.3300 H          1 UNL       0.050100
@<TRIPOS>BOND
     1     1     2 2   
     2     2     3 1   
     3     2    21 1   
     4     3     4 1   
     5     3    25 1   
     6     4     5 1   
     7     4    26 1   
     8     4    27 1   
     9     5     6 ar  
    10     5    24 ar  
    11     6     7 ar  
    12     6    28 1   
    13     7     8 ar  
    14     7    29 1   
    15     8     9 1   
    16     8    23 ar  
    17     9    10 1   
    18     9    30 1   
    19     9    31 1   
    20    10    11 1   
    21    10    32 1   
    22    11    12 2   
    23    11    13 1   
    24    13    14 1   
    25    13    33 1   
    26    14    15 1   
    27    14    34 1   
    28    14    35 1   
    29    15    16 1   
    30    15    22 1   
    31    15    36 1   
    32    16    17 1   
    33    16    37 1   
    34    16    38 1   
    35    17    18 1   
    36    17    39 1   
    37    17    40 1   
    38    18    19 1   
    39    18    41 1   
    40    18    42 1   
    41    19    20 1   
    42    19    22 1   
    43    19    43 1   
    44    20    21 1   
    45    20    44 1   
    46    20    45 1   
    47    21    46 1   
    48    22    47 1   
    49    22    48 1   
    50    23    24 ar  
    51    24    49 1   
@<TRIPOS>SUBSTRUCTURE
     1 UNL         1 TEMP              0 ****  ****    0 ROOT
