@<TRIPOS>MOLECULE
83
   68    72     1     0     0
SMALL
bcc


@<TRIPOS>ATOM
      1 H            1.6270     2.2200    -0.0150 H          0 83        0.240000
      2 C            2.2630     3.0920    -0.0110 C          0 83       -0.015000
      3 N            3.5830     3.0740    -0.0020 N          0 83       -0.084000
      4 C1           4.0180     4.3610     0.0050 C          0 83       -0.067000
      5 H1           5.0480     4.6880     0.0130 H          0 83        0.257000
      6 C2           2.9360     5.1500    -0.0020 C          0 83       -0.067000
      7 H2           2.9330     6.2300     0.0010 H          0 83        0.257000
      8 N1           1.8440     4.3430    -0.0200 N          0 83       -0.084000
      9 C3           0.4850     4.8630    -0.0380 C          0 83       -0.042000
     10 H3           0.3490     5.5150     0.8240 H          0 83        0.160000
     11 H4           0.3490     5.4520    -0.9450 H          0 83        0.160000
     12 C4          -0.5870     3.7740    -0.0020 C          0 83       -0.202000
     13 H5          -0.4950     3.1310    -0.8780 H          0 83        0.105500
     14 H6          -0.4860     3.1820     0.9070 H          0 83        0.105500
     15 C5          -1.9380     4.4870    -0.0160 C          0 83       -0.042000
     16 H7          -1.9970     5.1400     0.8550 H          0 83        0.160000
     17 H8          -2.0000     5.1000    -0.9150 H          0 83        0.160000
     18 N2          -3.0760     3.5800     0.0050 N          0 83       -0.084000
     19 C6          -3.0960     2.2610    -0.0090 C          0 83       -0.015000
     20 H9          -2.2250     1.6230    -0.0360 H          0 83        0.240000
     21 N3          -4.3470     1.8430     0.0160 N          0 83       -0.084000
     22 C7          -5.1530     2.9370     0.0490 C          0 83       -0.067000
     23 H10         -6.2320     2.9350     0.0760 H          0 83        0.257000
     24 C8          -4.3610     4.0180     0.0420 C          0 83       -0.067000
     25 H11         -4.6850     5.0480     0.0630 H          0 83        0.257000
     26 C9          -4.8690     0.4850     0.0090 C          0 83       -0.042000
     27 H12         -5.4910     0.3460     0.8930 H          0 83        0.160000
     28 H13         -5.4900     0.3540    -0.8770 H          0 83        0.160000
     29 C10         -3.7800    -0.5860     0.0030 C          0 83       -0.202000
     30 H14         -3.1520    -0.4750    -0.8820 H          0 83        0.105500
     31 H15         -3.1710    -0.5040     0.9030 H          0 83        0.105500
     32 C11         -4.4910    -1.9380    -0.0280 C          0 83       -0.042000
     33 H16         -5.1480    -2.0070     0.8390 H          0 83        0.160000
     34 H17         -5.1000    -1.9920    -0.9310 H          0 83        0.160000
     35 N4          -3.5830    -3.0740    -0.0150 N          0 83       -0.084000
     36 C12         -2.2630    -3.0920    -0.0210 C          0 83       -0.015000
     37 H18         -1.6270    -2.2200    -0.0330 H          0 83        0.240000
     38 N5          -1.8440    -4.3430    -0.0100 N          0 83       -0.084000
     39 C13         -2.9360    -5.1510     0.0080 C          0 83       -0.067000
     40 H19         -2.9330    -6.2300     0.0230 H          0 83        0.257000
     41 C14         -4.0180    -4.3610     0.0050 C          0 83       -0.067000
     42 H20         -5.0480    -4.6880     0.0170 H          0 83        0.257000
     43 C15         -0.4850    -4.8630    -0.0180 C          0 83       -0.042000
     44 H21         -0.3500    -5.4990     0.8570 H          0 83        0.160000
     45 H22         -0.3490    -5.4700    -0.9130 H          0 83        0.160000
     46 C16          0.5870    -3.7740    -0.0010 C          0 83       -0.202000
     47 H23          0.4870    -3.1390    -0.8810 H          0 83        0.105500
     48 H24          0.4940    -3.1740     0.9040 H          0 83        0.105500
     49 C17          1.9380    -4.4870    -0.0220 C          0 83       -0.042000
     50 H25          1.9990    -5.1440     0.8460 H          0 83        0.160000
     51 H26          1.9970    -5.0960    -0.9240 H          0 83        0.160000
     52 N6           3.0760    -3.5800     0.0000 N          0 83       -0.084000
     53 C18          3.0960    -2.2610    -0.0110 C          0 83       -0.015000
     54 H27          2.2250    -1.6220    -0.0350 H          0 83        0.240000
     55 N7           4.3480    -1.8430     0.0120 N          0 83       -0.084000
     56 C19          5.1530    -2.9370     0.0430 C          0 83       -0.067000
     57 H28          6.2320    -2.9360     0.0690 H          0 83        0.257000
     58 C20          4.3610    -4.0180     0.0360 C          0 83       -0.067000
     59 H29          4.6850    -5.0480     0.0550 H          0 83        0.257000
     60 C21          4.8690    -0.4850     0.0050 C          0 83       -0.042000
     61 H30          5.4920    -0.3460     0.8880 H          0 83        0.160000
     62 H31          5.4880    -0.3540    -0.8820 H          0 83        0.160000
     63 C22          3.7800     0.5870     0.0010 C          0 83       -0.202000
     64 H32          3.1590     0.4840    -0.8890 H          0 83        0.105500
     65 H33          3.1650     0.4960     0.8970 H          0 83        0.105500
     66 C23          4.4920     1.9390    -0.0020 C          0 83       -0.042000
     67 H34          5.1220     1.9990    -0.8900 H          0 83        0.160000
     68 H35          5.1290     2.0000     0.8800 H          0 83        0.160000
@<TRIPOS>BOND
     1     1     2 1   
     2     2     3 1   
     3     2     8 1   
     4     3     4 1   
     5     3    66 1   
     6     4     5 1   
     7     4     6 1   
     8     6     7 1   
     9     6     8 1   
    10     8     9 1   
    11     9    10 1   
    12     9    11 1   
    13     9    12 1   
    14    12    13 1   
    15    12    14 1   
    16    12    15 1   
    17    15    16 1   
    18    15    17 1   
    19    15    18 1   
    20    18    19 1   
    21    18    24 1   
    22    19    20 1   
    23    19    21 1   
    24    21    22 1   
    25    21    26 1   
    26    22    23 1   
    27    22    24 1   
    28    24    25 1   
    29    26    27 1   
    30    26    28 1   
    31    26    29 1   
    32    29    30 1   
    33    29    31 1   
    34    29    32 1   
    35    32    33 1   
    36    32    34 1   
    37    32    35 1   
    38    35    36 1   
    39    35    41 1   
    40    36    37 1   
    41    36    38 1   
    42    38    39 1   
    43    38    43 1   
    44    39    40 1   
    45    39    41 1   
    46    41    42 1   
    47    43    44 1   
    48    43    45 1   
    49    43    46 1   
    50    46    47 1   
    51    46    48 1   
    52    46    49 1   
    53    49    50 1   
    54    49    51 1   
    55    49    52 1   
    56    52    53 1   
    57    52    58 1   
    58    53    54 1   
    59    53    55 1   
    60    55    56 1   
    61    55    60 1   
    62    56    57 1   
    63    56    58 1   
    64    58    59 1   
    65    60    61 1   
    66    60    62 1   
    67    60    63 1   
    68    63    64 1   
    69    63    65 1   
    70    63    66 1   
    71    66    67 1   
    72    66    68 1   
@<TRIPOS>SUBSTRUCTURE
     1 83          1 TEMP              0 ****  ****    0 ROOT
