@<TRIPOS>MOLECULE
108
  192   210     1     0     0
SMALL
bcc


@<TRIPOS>ATOM
      1 C           -3.6520    13.2800    -1.4700 C          0 108      -0.154500
      2 C1          -4.3120    12.2120    -2.0490 C          0 108      -0.108250
      3 C2          -3.9570    10.9180    -1.7190 C          0 108      -0.164500
      4 C3          -2.9360    10.6920    -0.8040 C          0 108       0.156600
      5 C4          -2.2750    11.7680    -0.2240 C          0 108      -0.164500
      6 C5          -2.6350    13.0580    -0.5590 C          0 108      -0.108250
      7 N           -2.5750     9.3840    -0.4670 N          0 108      -0.447800
      8 C6          -1.2300     9.0520    -0.2970 C          0 108       0.150850
      9 C7          -0.3240     9.3790    -1.3010 C          0 108      -0.153000
     10 C8           1.0070     9.0520    -1.1620 C          0 108      -0.104875
     11 C9           1.4520     8.4200     0.0000 C          0 108      -0.049000
     12 C10          0.5460     8.1190     1.0170 C          0 108      -0.104875
     13 C11         -0.7890     8.4300     0.8650 C          0 108      -0.153000
     14 C12          2.8810     8.0400     0.1210 C          0 108      -0.049000
     15 C13          3.4540     7.8090     1.3670 C          0 108      -0.104875
     16 C14          4.7820     7.4580     1.4580 C          0 108      -0.153000
     17 C15          5.5480     7.3110     0.3070 C          0 108       0.150850
     18 C16          4.9750     7.5370    -0.9420 C          0 108      -0.153000
     19 C17          3.6500     7.9020    -1.0370 C          0 108      -0.104875
     20 N1           6.8860     6.9440     0.4010 N          0 108      -0.447800
     21 C18          7.8440     7.9310     0.6510 C          0 108       0.156600
     22 C19          8.9040     7.6710     1.5110 C          0 108      -0.164500
     23 C20          9.8480     8.6490     1.7560 C          0 108      -0.108250
     24 C21          9.7400     9.8850     1.1460 C          0 108      -0.154500
     25 C22          8.6860    10.1470     0.2900 C          0 108      -0.108250
     26 C23          7.7410     9.1730     0.0360 C          0 108      -0.164500
     27 C24          7.3010     5.6260     0.2540 C          0 108       0.150850
     28 C25          7.5380     5.0520    -0.9800 C          0 108      -0.153000
     29 C26          7.9260     3.7320    -1.0750 C          0 108      -0.104875
     30 C27          8.0750     2.9710     0.0840 C          0 108      -0.049000
     31 C28          7.8530     3.5520     1.3310 C          0 108      -0.104875
     32 C29          7.4720     4.8690     1.4210 C          0 108      -0.153000
     33 C30          8.4590     1.5400    -0.0070 C          0 108      -0.049000
     34 C31          8.5090     0.7470     1.1380 C          0 108      -0.104875
     35 C32          8.8530    -0.5850     1.0390 C          0 108      -0.153000
     36 C33          9.1600    -1.1340    -0.1990 C          0 108       0.150850
     37 C34          9.1270    -0.3350    -1.3410 C          0 108      -0.153000
     38 C35          8.7780     0.9920    -1.2480 C          0 108      -0.104875
     39 N2           9.4850    -2.4800    -0.3380 N          0 108      -0.447800
     40 C36         10.8130    -2.8250    -0.6070 C          0 108       0.156600
     41 C37         11.3820    -3.9350     0.0050 C          0 108      -0.164500
     42 C38         12.6930    -4.2730    -0.2640 C          0 108      -0.108250
     43 C39         13.4400    -3.5090    -1.1410 C          0 108      -0.154500
     44 C40         12.8770    -2.4030    -1.7520 C          0 108      -0.108250
     45 C41         11.5650    -2.0620    -1.4920 C          0 108      -0.164500
     46 C42          8.5440    -3.4950    -0.2200 C          0 108       0.150850
     47 C43          8.2660    -4.3240    -1.2950 C          0 108      -0.153000
     48 C44          7.3140    -5.3120    -1.1850 C          0 108      -0.104875
     49 C45          6.6470    -5.4990     0.0260 C          0 108      -0.049000
     50 C46          6.9550    -4.6950     1.1210 C          0 108      -0.104875
     51 C47          7.8970    -3.6970     1.0020 C          0 108      -0.153000
     52 C48          5.5830    -6.5300     0.1170 C          0 108      -0.049000
     53 C49          5.1410    -6.9850     1.3560 C          0 108      -0.104875
     54 C50          4.1490    -7.9390     1.4230 C          0 108      -0.153000
     55 C51          3.5760    -8.4360     0.2580 C          0 108       0.150850
     56 C52          4.0150    -7.9780    -0.9820 C          0 108      -0.153000
     57 C53          5.0140    -7.0320    -1.0540 C          0 108      -0.104875
     58 N3           2.5710    -9.3950     0.3260 N          0 108      -0.447800
     59 C54          2.9300   -10.7280     0.5420 C          0 108       0.156600
     60 C55          2.1640   -11.5280     1.3820 C          0 108      -0.164500
     61 C56          2.5210   -12.8450     1.5930 C          0 108      -0.108250
     62 C57          3.6390   -13.3680     0.9690 C          0 108      -0.154500
     63 C58          4.4030   -12.5750     0.1330 C          0 108      -0.108250
     64 C59          4.0490   -11.2590    -0.0870 C          0 108      -0.164500
     65 C60          1.2260    -9.0800     0.1880 C          0 108       0.150850
     66 C61          0.5940    -9.0400    -1.0410 C          0 108      -0.153000
     67 C62         -0.7410    -8.7080    -1.1310 C          0 108      -0.104875
     68 C63         -1.4580    -8.4100     0.0290 C          0 108      -0.049000
     69 C64         -0.8270    -8.4640     1.2700 C          0 108      -0.104875
     70 C65          0.5030    -8.7980     1.3530 C          0 108      -0.153000
     71 C66         -2.8900    -8.0310    -0.0600 C          0 108      -0.049000
     72 C67         -3.5980    -7.6620     1.0810 C          0 108      -0.104875
     73 C68         -4.9230    -7.2960     0.9820 C          0 108      -0.153000
     74 C69         -5.5580    -7.3050    -0.2540 C          0 108       0.150850
     75 C70         -4.8530    -7.6910    -1.3930 C          0 108      -0.153000
     76 C71         -3.5290    -8.0510    -1.3000 C          0 108      -0.104875
     77 N4          -6.8860    -6.9150    -0.3920 N          0 108      -0.447800
     78 C72         -7.8430    -7.8940    -0.6780 C          0 108       0.156600
     79 C73         -9.0910    -7.8460    -0.0700 C          0 108      -0.164500
     80 C74        -10.0340    -8.8130    -0.3560 C          0 108      -0.108250
     81 C75         -9.7370    -9.8300    -1.2450 C          0 108      -0.154500
     82 C76         -8.4950    -9.8810    -1.8520 C          0 108      -0.108250
     83 C77         -7.5490    -8.9130    -1.5750 C          0 108      -0.164500
     84 C78         -7.3040    -5.5990    -0.2580 C          0 108       0.150850
     85 C79         -7.8360    -4.9140    -1.3390 C          0 108      -0.153000
     86 C80         -8.2280    -3.6020    -1.2100 C          0 108      -0.104875
     87 C81         -8.1170    -2.9650     0.0260 C          0 108      -0.049000
     88 C82         -7.6180    -3.6610     1.1250 C          0 108      -0.104875
     89 C83         -7.2120    -4.9710     0.9870 C          0 108      -0.153000
     90 C84         -8.4970    -1.5350     0.1450 C          0 108      -0.049000
     91 C85         -8.7080    -0.9610     1.3960 C          0 108      -0.104875
     92 C86         -9.0510     0.3690     1.4920 C          0 108      -0.153000
     93 C87         -9.1680     1.1460     0.3440 C          0 108       0.150850
     94 C88         -8.9610     0.5720    -0.9070 C          0 108      -0.153000
     95 C89         -8.6290    -0.7610    -1.0080 C          0 108      -0.104875
     96 N5          -9.4870     2.4960     0.4460 N          0 108      -0.447800
     97 C90        -10.8090     2.8560     0.7180 C          0 108       0.156600
     98 C91        -11.0800     3.9080     1.5850 C          0 108      -0.164500
     99 C92        -12.3880     4.2620     1.8510 C          0 108      -0.108250
    100 C93        -13.4280     3.5710     1.2560 C          0 108      -0.154500
    101 C94        -13.1620     2.5240     0.3930 C          0 108      -0.108250
    102 C95        -11.8560     2.1680     0.1170 C          0 108      -0.164500
    103 C96         -8.5400     3.4980     0.2870 C          0 108       0.150850
    104 C97         -8.1630     3.9740    -0.9550 C          0 108      -0.153000
    105 C98         -7.1960     4.9500    -1.0650 C          0 108      -0.104875
    106 C99         -6.5940     5.4610     0.0850 C          0 108      -0.049000
    107 C100        -6.9840     4.9960     1.3390 C          0 108      -0.104875
    108 C101        -7.9520     4.0250     1.4440 C          0 108      -0.153000
    109 C102        -5.5300     6.4890    -0.0310 C          0 108      -0.049000
    110 C103        -4.8700     6.9650     1.1000 C          0 108      -0.104875
    111 C104        -3.8800     7.9200     0.9730 C          0 108      -0.153000
    112 C105        -3.5680     8.4000    -0.2930 C          0 108       0.150850
    113 C106        -4.2470     7.9210    -1.4100 C          0 108      -0.153000
    114 C107        -5.1890     6.9800    -1.2920 C          0 108      -0.104875
    115 H           -3.9280    14.2910    -1.7330 H          0 108       0.133000
    116 H1          -5.1050    12.3880    -2.7590 H          0 108       0.132750
    117 H2          -4.4730    10.0840    -2.1710 H          0 108       0.144500
    118 H3          -1.4820    11.5950     0.4870 H          0 108       0.144500
    119 H4          -2.1220    13.8950    -0.1090 H          0 108       0.132750
    120 H5          -0.6640     9.8880    -2.1900 H          0 108       0.146000
    121 H6           1.7050     9.2840    -1.9520 H          0 108       0.137000
    122 H7           0.8900     7.6420     1.9230 H          0 108       0.137000
    123 H8          -1.4920     8.1920     1.6490 H          0 108       0.146000
    124 H9           2.8570     7.9050     2.2620 H          0 108       0.137000
    125 H10          5.2300     7.2950     2.4280 H          0 108       0.146000
    126 H11          5.5700     7.4260    -1.8360 H          0 108       0.146000
    127 H12          3.2070     8.0810    -2.0050 H          0 108       0.137000
    128 H13          8.9890     6.7060     1.9880 H          0 108       0.144500
    129 H14         10.6720     8.4470     2.4240 H          0 108       0.132750
    130 H15         10.4800    10.6480     1.3390 H          0 108       0.133000
    131 H16          8.6040    11.1140    -0.1850 H          0 108       0.132750
    132 H17          6.9180     9.3780    -0.6330 H          0 108       0.144500
    133 H18          7.4190     5.6410    -1.8770 H          0 108       0.146000
    134 H19          8.1130     3.2900    -2.0420 H          0 108       0.137000
    135 H20          7.9810     2.9660     2.2300 H          0 108       0.137000
    136 H21          7.3050     5.3210     2.3880 H          0 108       0.146000
    137 H22          8.2790     1.1750     2.1020 H          0 108       0.137000
    138 H23          8.8830    -1.2010     1.9250 H          0 108       0.146000
    139 H24          9.3770    -0.7590    -2.3030 H          0 108       0.146000
    140 H25          8.7500     1.6080    -2.1350 H          0 108       0.137000
    141 H26         10.7990    -4.5320     0.6900 H          0 108       0.144500
    142 H27         13.1360    -5.1360     0.2120 H          0 108       0.132750
    143 H28         14.4660    -3.7750    -1.3500 H          0 108       0.133000
    144 H29         13.4640    -1.8080    -2.4360 H          0 108       0.132750
    145 H30         11.1260    -1.1980    -1.9690 H          0 108       0.144500
    146 H31          8.7990    -4.1940    -2.2250 H          0 108       0.146000
    147 H32          7.0850    -5.9400    -2.0330 H          0 108       0.137000
    148 H33          6.4540    -4.8550     2.0650 H          0 108       0.137000
    149 H34          8.1350    -3.0720     1.8500 H          0 108       0.146000
    150 H35          5.5740    -6.5910     2.2630 H          0 108       0.137000
    151 H36          3.8170    -8.3020     2.3840 H          0 108       0.146000
    152 H37          3.5710    -8.3640    -1.8880 H          0 108       0.146000
    153 H38          5.3570    -6.6800    -2.0150 H          0 108       0.137000
    154 H39          1.2910   -11.1190     1.8700 H          0 108       0.144500
    155 H40          1.9270   -13.4670     2.2460 H          0 108       0.132750
    156 H41          3.9160   -14.3990     1.1360 H          0 108       0.133000
    157 H42          5.2760   -12.9870    -0.3520 H          0 108       0.132750
    158 H43          4.6460   -10.6400    -0.7400 H          0 108       0.144500
    159 H44          1.1510    -9.2700    -1.9380 H          0 108       0.146000
    160 H45         -1.2300    -8.6800    -2.0930 H          0 108       0.137000
    161 H46         -1.3850    -8.2430     2.1680 H          0 108       0.137000
    162 H47          0.9900    -8.8450     2.3160 H          0 108       0.146000
    163 H48         -3.1080    -7.6620     2.0440 H          0 108       0.137000
    164 H49         -5.4690    -7.0010     1.8660 H          0 108       0.146000
    165 H50         -5.3480    -7.7080    -2.3530 H          0 108       0.146000
    166 H51         -2.9840    -8.3480    -2.1840 H          0 108       0.137000
    167 H52         -9.3240    -7.0520     0.6250 H          0 108       0.144500
    168 H53        -11.0050    -8.7770     0.1170 H          0 108       0.132750
    169 H54        -10.4760   -10.5850    -1.4670 H          0 108       0.133000
    170 H55         -8.2660   -10.6760    -2.5450 H          0 108       0.132750
    171 H56         -6.5800    -8.9540    -2.0490 H          0 108       0.144500
    172 H57         -7.9420    -5.4150    -2.2900 H          0 108       0.146000
    173 H58         -8.6210    -3.0670    -2.0620 H          0 108       0.137000
    174 H59         -7.5500    -3.1740     2.0870 H          0 108       0.137000
    175 H60         -6.8230    -5.5100     1.8380 H          0 108       0.146000
    176 H61         -8.6040    -1.5590     2.2900 H          0 108       0.137000
    177 H62         -9.2290     0.8100     2.4620 H          0 108       0.146000
    178 H63         -9.0610     1.1720    -1.7990 H          0 108       0.146000
    179 H64         -8.4700    -1.2060    -1.9790 H          0 108       0.137000
    180 H65        -10.2680     4.4470     2.0500 H          0 108       0.144500
    181 H66        -12.5990     5.0780     2.5250 H          0 108       0.132750
    182 H67        -14.4500     3.8500     1.4660 H          0 108       0.133000
    183 H68        -13.9760     1.9860    -0.0700 H          0 108       0.132750
    184 H69        -11.6490     1.3500    -0.5570 H          0 108       0.144500
    185 H70         -8.6290     3.5780    -1.8450 H          0 108       0.146000
    186 H71         -6.9060     5.3180    -2.0380 H          0 108       0.137000
    187 H72         -6.5250     5.3980     2.2300 H          0 108       0.137000
    188 H73         -8.2590     3.6690     2.4170 H          0 108       0.146000
    189 H74         -5.1330     6.5880     2.0770 H          0 108       0.137000
    190 H75         -3.3680     8.2880     1.8490 H          0 108       0.146000
    191 H76         -4.0020     8.2990    -2.3920 H          0 108       0.146000
    192 H77         -5.7040     6.6180    -2.1700 H          0 108       0.137000
@<TRIPOS>BOND
     1     1     2 ar  
     2     1     6 ar  
     3     1   115 1   
     4     2     3 ar  
     5     2   116 1   
     6     3     4 ar  
     7     3   117 1   
     8     4     5 ar  
     9     4     7 1   
    10     5     6 ar  
    11     5   118 1   
    12     6   119 1   
    13     7     8 1   
    14     7   112 1   
    15     8     9 ar  
    16     8    13 ar  
    17     9    10 ar  
    18     9   120 1   
    19    10    11 ar  
    20    10   121 1   
    21    11    12 ar  
    22    11    14 1   
    23    12    13 ar  
    24    12   122 1   
    25    13   123 1   
    26    14    15 ar  
    27    14    19 ar  
    28    15    16 ar  
    29    15   124 1   
    30    16    17 ar  
    31    16   125 1   
    32    17    18 ar  
    33    17    20 1   
    34    18    19 ar  
    35    18   126 1   
    36    19   127 1   
    37    20    21 1   
    38    20    27 1   
    39    21    22 ar  
    40    21    26 ar  
    41    22    23 ar  
    42    22   128 1   
    43    23    24 ar  
    44    23   129 1   
    45    24    25 ar  
    46    24   130 1   
    47    25    26 ar  
    48    25   131 1   
    49    26   132 1   
    50    27    28 ar  
    51    27    32 ar  
    52    28    29 ar  
    53    28   133 1   
    54    29    30 ar  
    55    29   134 1   
    56    30    31 ar  
    57    30    33 1   
    58    31    32 ar  
    59    31   135 1   
    60    32   136 1   
    61    33    34 ar  
    62    33    38 ar  
    63    34    35 ar  
    64    34   137 1   
    65    35    36 ar  
    66    35   138 1   
    67    36    37 ar  
    68    36    39 1   
    69    37    38 ar  
    70    37   139 1   
    71    38   140 1   
    72    39    40 1   
    73    39    46 1   
    74    40    41 ar  
    75    40    45 ar  
    76    41    42 ar  
    77    41   141 1   
    78    42    43 ar  
    79    42   142 1   
    80    43    44 ar  
    81    43   143 1   
    82    44    45 ar  
    83    44   144 1   
    84    45   145 1   
    85    46    47 ar  
    86    46    51 ar  
    87    47    48 ar  
    88    47   146 1   
    89    48    49 ar  
    90    48   147 1   
    91    49    50 ar  
    92    49    52 1   
    93    50    51 ar  
    94    50   148 1   
    95    51   149 1   
    96    52    53 ar  
    97    52    57 ar  
    98    53    54 ar  
    99    53   150 1   
   100    54    55 ar  
   101    54   151 1   
   102    55    56 ar  
   103    55    58 1   
   104    56    57 ar  
   105    56   152 1   
   106    57   153 1   
   107    58    59 1   
   108    58    65 1   
   109    59    60 ar  
   110    59    64 ar  
   111    60    61 ar  
   112    60   154 1   
   113    61    62 ar  
   114    61   155 1   
   115    62    63 ar  
   116    62   156 1   
   117    63    64 ar  
   118    63   157 1   
   119    64   158 1   
   120    65    66 ar  
   121    65    70 ar  
   122    66    67 ar  
   123    66   159 1   
   124    67    68 ar  
   125    67   160 1   
   126    68    69 ar  
   127    68    71 1   
   128    69    70 ar  
   129    69   161 1   
   130    70   162 1   
   131    71    72 ar  
   132    71    76 ar  
   133    72    73 ar  
   134    72   163 1   
   135    73    74 ar  
   136    73   164 1   
   137    74    75 ar  
   138    74    77 1   
   139    75    76 ar  
   140    75   165 1   
   141    76   166 1   
   142    77    78 1   
   143    77    84 1   
   144    78    79 ar  
   145    78    83 ar  
   146    79    80 ar  
   147    79   167 1   
   148    80    81 ar  
   149    80   168 1   
   150    81    82 ar  
   151    81   169 1   
   152    82    83 ar  
   153    82   170 1   
   154    83   171 1   
   155    84    85 ar  
   156    84    89 ar  
   157    85    86 ar  
   158    85   172 1   
   159    86    87 ar  
   160    86   173 1   
   161    87    88 ar  
   162    87    90 1   
   163    88    89 ar  
   164    88   174 1   
   165    89   175 1   
   166    90    91 ar  
   167    90    95 ar  
   168    91    92 ar  
   169    91   176 1   
   170    92    93 ar  
   171    92   177 1   
   172    93    94 ar  
   173    93    96 1   
   174    94    95 ar  
   175    94   178 1   
   176    95   179 1   
   177    96    97 1   
   178    96   103 1   
   179    97    98 ar  
   180    97   102 ar  
   181    98    99 ar  
   182    98   180 1   
   183    99   100 ar  
   184    99   181 1   
   185   100   101 ar  
   186   100   182 1   
   187   101   102 ar  
   188   101   183 1   
   189   102   184 1   
   190   103   104 ar  
   191   103   108 ar  
   192   104   105 ar  
   193   104   185 1   
   194   105   106 ar  
   195   105   186 1   
   196   106   107 ar  
   197   106   109 1   
   198   107   108 ar  
   199   107   187 1   
   200   108   188 1   
   201   109   110 ar  
   202   109   114 ar  
   203   110   111 ar  
   204   110   189 1   
   205   111   112 ar  
   206   111   190 1   
   207   112   113 ar  
   208   113   114 ar  
   209   113   191 1   
   210   114   192 1   
@<TRIPOS>SUBSTRUCTURE
     1 108         1 TEMP              0 ****  ****    0 ROOT
