@<TRIPOS>MOLECULE
198
   70    74     1     0     0
SMALL
bcc


@<TRIPOS>ATOM
      1 C           -5.2630     1.1190     0.2150 C          0 198      -0.111900
      2 C1          -5.3120    -0.2830    -0.3940 C          0 198      -0.111900
      3 C2          -5.5240    -1.3150     0.7150 C          0 198       0.132900
      4 O           -5.5740    -2.6240     0.1440 O          0 198      -0.342400
      5 C3          -4.2900    -3.0580     0.0460 C          0 198       0.097600
      6 C4          -3.5080    -3.1770     1.1850 C          0 198      -0.152000
      7 C5          -2.2040    -3.6210     1.0830 C          0 198      -0.109750
      8 C6          -1.6770    -3.9460    -0.1540 C          0 198      -0.092300
      9 C7          -0.2560    -4.4340    -0.2630 C          0 198      -0.035600
     10 C8           0.7050    -3.2580    -0.0710 C          0 198      -0.073400
     11 C9           1.8420    -3.6790     0.8620 C          0 198      -0.127700
     12 C10          3.1440    -3.1130     0.3580 C          0 198       0.413100
     13 N            3.3380    -1.8100     0.3820 N          0 198      -0.637000
     14 C11          4.4720    -1.2670    -0.0420 C          0 198       0.360300
     15 C12          5.4980    -2.0680    -0.5380 C          0 198      -0.236300
     16 C13          5.3200    -3.4410    -0.5820 C          0 198      -0.093000
     17 C14          4.1200    -3.9670    -0.1250 C          0 198      -0.243800
     18 C15          4.6460     0.2060     0.0040 C          0 198       0.360300
     19 C16          5.8650     0.7690    -0.3650 C          0 198      -0.236300
     20 C17          6.0140     2.1450    -0.3150 C          0 198      -0.093000
     21 C18          4.9350     2.9130     0.0980 C          0 198      -0.243800
     22 C19          3.7500     2.2870     0.4450 C          0 198       0.413100
     23 C20          2.5720     3.1170     0.8870 C          0 198      -0.127700
     24 C21          1.8360     3.6470    -0.3460 C          0 198      -0.073400
     25 C22          0.9710     4.8450     0.0540 C          0 198      -0.035600
     26 C23         -0.4820     4.4510    -0.0030 C          0 198      -0.092300
     27 C24         -1.2050     4.3080     1.1670 C          0 198      -0.109750
     28 C25         -2.5370     3.9440     1.1170 C          0 198      -0.152000
     29 C26         -3.1490     3.7240    -0.1090 C          0 198       0.097600
     30 O1          -4.4600     3.3680    -0.1600 O          0 198      -0.342400
     31 C27         -4.5150     2.0610    -0.7310 C          0 198       0.132900
     32 C28         -2.4220     3.8700    -1.2810 C          0 198      -0.152000
     33 C29         -1.0910     4.2330    -1.2250 C          0 198      -0.109750
     34 N1           3.6380     0.9760     0.3930 N          0 198      -0.637000
     35 C30         -2.4540    -3.8260    -1.2910 C          0 198      -0.109750
     36 C31         -3.7590    -3.3820    -1.1950 C          0 198      -0.152000
     37 H           -6.2790     1.4860     0.3640 H          0 198       0.054450
     38 H1          -4.7460     1.0810     1.1730 H          0 198       0.054450
     39 H2          -6.1350    -0.3410    -1.1060 H          0 198       0.054450
     40 H3          -4.3730    -0.4890    -0.9070 H          0 198       0.054450
     41 H4          -4.7000    -1.2600     1.4250 H          0 198       0.053950
     42 H5          -6.4620    -1.1080     1.2300 H          0 198       0.053950
     43 H6          -3.9180    -2.9230     2.1510 H          0 198       0.142000
     44 H7          -1.5940    -3.7150     1.9700 H          0 198       0.133750
     45 H8          -0.0690    -5.1850     0.5050 H          0 198       0.046700
     46 H9          -0.0980    -4.8740    -1.2470 H          0 198       0.046700
     47 H10          1.1160    -2.9630    -1.0360 H          0 198       0.055950
     48 H11          0.1670    -2.4170     0.3680 H          0 198       0.055950
     49 H12          1.6470    -3.3030     1.8660 H          0 198       0.055450
     50 H13          1.9060    -4.7670     0.8890 H          0 198       0.055450
     51 H14          6.4210    -1.6240    -0.8830 H          0 198       0.147000
     52 H15          6.0960    -4.0870    -0.9630 H          0 198       0.139000
     53 H16          3.9490    -5.0330    -0.1460 H          0 198       0.143000
     54 H17          6.6840     0.1410    -0.6840 H          0 198       0.147000
     55 H18          6.9490     2.6100    -0.5910 H          0 198       0.139000
     56 H19          5.0180     3.9880     0.1480 H          0 198       0.143000
     57 H20          1.8950     2.5010     1.4780 H          0 198       0.055450
     58 H21          2.9230     3.9550     1.4900 H          0 198       0.055450
     59 H22          2.5620     3.9580    -1.0970 H          0 198       0.055950
     60 H23          1.2020     2.8620    -0.7560 H          0 198       0.055950
     61 H24          1.2250     5.1550     1.0680 H          0 198       0.046700
     62 H25          1.1520     5.6700    -0.6350 H          0 198       0.046700
     63 H26         -0.7280     4.4790     2.1210 H          0 198       0.133750
     64 H27         -3.1010     3.8320     2.0310 H          0 198       0.142000
     65 H28         -3.5020     1.6890    -0.8860 H          0 198       0.053950
     66 H29         -5.0370     2.1040    -1.6870 H          0 198       0.053950
     67 H30         -2.8970     3.6990    -2.2360 H          0 198       0.142000
     68 H31         -0.5240     4.3480    -2.1380 H          0 198       0.133750
     69 H32         -2.0410    -4.0790    -2.2560 H          0 198       0.133750
     70 H33         -4.3650    -3.2880    -2.0830 H          0 198       0.142000
@<TRIPOS>BOND
     1     1     2 1   
     2     1    31 1   
     3     1    37 1   
     4     1    38 1   
     5     2     3 1   
     6     2    39 1   
     7     2    40 1   
     8     3     4 1   
     9     3    41 1   
    10     3    42 1   
    11     4     5 1   
    12     5     6 ar  
    13     5    36 ar  
    14     6     7 ar  
    15     6    43 1   
    16     7     8 ar  
    17     7    44 1   
    18     8     9 1   
    19     8    35 ar  
    20     9    10 1   
    21     9    45 1   
    22     9    46 1   
    23    10    11 1   
    24    10    47 1   
    25    10    48 1   
    26    11    12 1   
    27    11    49 1   
    28    11    50 1   
    29    12    13 ar  
    30    12    17 ar  
    31    13    14 ar  
    32    14    15 ar  
    33    14    18 1   
    34    15    16 ar  
    35    15    51 1   
    36    16    17 ar  
    37    16    52 1   
    38    17    53 1   
    39    18    19 ar  
    40    18    34 ar  
    41    19    20 ar  
    42    19    54 1   
    43    20    21 ar  
    44    20    55 1   
    45    21    22 ar  
    46    21    56 1   
    47    22    23 1   
    48    22    34 ar  
    49    23    24 1   
    50    23    57 1   
    51    23    58 1   
    52    24    25 1   
    53    24    59 1   
    54    24    60 1   
    55    25    26 1   
    56    25    61 1   
    57    25    62 1   
    58    26    27 ar  
    59    26    33 ar  
    60    27    28 ar  
    61    27    63 1   
    62    28    29 ar  
    63    28    64 1   
    64    29    30 1   
    65    29    32 ar  
    66    30    31 1   
    67    31    65 1   
    68    31    66 1   
    69    32    33 ar  
    70    32    67 1   
    71    33    68 1   
    72    35    36 ar  
    73    35    69 1   
    74    36    70 1   
@<TRIPOS>SUBSTRUCTURE
     1 198         1 TEMP              0 ****  ****    0 ROOT
