@<TRIPOS>MOLECULE
ASB
   88    92     1     0     0
SMALL
bcc


@<TRIPOS>ATOM
      1 C1          -0.0510    -5.7980    -1.9860 C          1 ASB       0.111200
      2 O1           0.3500    -4.4230    -1.9340 O          1 ASB      -0.374900
      3 C2           0.9840    -4.1500    -0.7480 C          1 ASB       0.100100
      4 C3           0.2270    -3.6910     0.3470 C          1 ASB      -0.134050
      5 C4           0.9010    -3.4180     1.5490 C          1 ASB      -0.107000
      6 C5           2.2930    -3.5310     1.6460 C          1 ASB      -0.054800
      7 C6           2.9850    -3.2870     2.9570 C          1 ASB      -0.068800
      8 C7           3.0250    -3.9430     0.5270 C          1 ASB      -0.107000
      9 C8           2.3880    -4.2270    -0.6930 C          1 ASB      -0.134050
     10 C9           3.2340    -4.6210    -1.8810 C          1 ASB       0.129050
     11 N1           2.9830    -3.8250    -3.0740 N           1 ASB      -0.528150
     12 C10          3.1210    -2.4780    -3.2660 C          1 ASB       0.667300
     13 O2           2.8940    -1.9430    -4.3440 O           1 ASB      -0.580300
     14 C11          3.4870    -1.6070    -2.1370 C          1 ASB       0.089250
     15 C12          4.8210    -1.5660    -1.7260 C          1 ASB      -0.113000
     16 C13          5.1900    -0.7310    -0.6840 C          1 ASB      -0.013500
     17 C14          4.2160     0.0460    -0.0730 C          1 ASB      -0.113000
     18 C15          2.8930    -0.0140    -0.5260 C          1 ASB       0.070050
     19 C16          1.8540     0.7860     0.1790 C           1 ASB       0.660300
     20 O3           0.8370     0.2370     0.5850 O           1 ASB      -0.554100
     21 N2           2.1100     2.1340     0.3100 N           1 ASB      -0.528150
     22 C17          1.2220     3.0120     1.0560 C          1 ASB       0.129050
     23 C18         -0.0140     3.4560     0.3060 C          1 ASB      -0.134050
     24 C19         -0.0750     3.4560    -1.0970 C          1 ASB      -0.107000
     25 C20         -1.2240     3.8860    -1.7750 C          1 ASB      -0.054800
     26 C21         -1.2740     3.8650    -3.2760 C          1 ASB      -0.068800
     27 C22         -2.3410     4.2990    -1.0390 C          1 ASB      -0.107000
     28 C23         -2.3140     4.3250     0.3630 C          1 ASB      -0.134050
     29 C24         -3.5400     4.7730     1.1230 C          1 ASB       0.129050
     30 N3          -4.7270     4.0080     0.7720 N           1 ASB      -0.528150
     31 C25         -4.9830     2.6800     0.9870 C          1 ASB       0.667300
     32 O4          -6.0570     2.1720     0.6880 O           1 ASB      -0.580300
     33 C26         -3.9310     1.7890     1.5120 C          1 ASB       0.089250
     34 C27         -3.5960     1.8740     2.8640 C          1 ASB      -0.113000
     35 C28         -2.6640     0.9990     3.3940 C          1 ASB      -0.013500
     36 C29         -2.1160     0.0300     2.5690 C          1 ASB      -0.113000
     37 C30         -2.5100    -0.0610     1.2260 C          1 ASB       0.070050
     38 C31         -1.9640    -1.1630     0.3720 C           1 ASB       0.660300
     39 O5          -1.7290    -0.9570    -0.8140 O           1 ASB      -0.554100
     40 N4          -1.7870    -2.3930     0.9790 N           1 ASB      -0.528150
     41 C32         -1.2780    -3.5520     0.2570 C          1 ASB       0.129050
     42 N5          -3.3990     0.8340     0.7010 N          1 ASB      -0.299200
     43 C33         -3.7710     0.7660    -0.7330 C          1 ASB       0.131100
     44 C34         -1.1270     3.9490     1.0160 C          1 ASB       0.100100
     45 O6          -1.0760     3.9790     2.3890 O          1 ASB      -0.374900
     46 C35         -0.6290     5.2640     2.8460 C          1 ASB       0.111200
     47 N6           2.5400    -0.8170    -1.5650 N          1 ASB      -0.299200
     48 C36          1.1390    -0.8360    -2.0420 C          1 ASB       0.131100
     49 H1          -0.8110    -6.0160    -1.2290 H          1 ASB       0.054700
     50 H2           0.8040    -6.4720    -1.8670 H          1 ASB       0.054700
     51 H3          -0.4920    -5.9790    -2.9710 H          1 ASB       0.054700
     52 H4           0.3380    -3.1230     2.4330 H          1 ASB       0.144750
     53 H5           4.0010    -2.9110     2.7970 H          1 ASB       0.062367
     54 H6           2.4500    -2.5350     3.5460 H          1 ASB       0.062367
     55 H7           3.0370    -4.2180     3.5310 H          1 ASB       0.062367
     56 H8           4.1050    -4.0580     0.6170 H          1 ASB       0.144750
     57 H9           4.3010    -4.5250    -1.6520 H          1 ASB       0.086950
     58 H10          3.0500    -5.6710    -2.1340 H          1 ASB       0.086950
     59 H11          2.7050    -4.3330    -3.9090 H          1 ASB       0.341750
     60 H12          5.5700    -2.1790    -2.2260 H          1 ASB       0.201750
     61 H13          6.2260    -0.6920    -0.3470 H          1 ASB       0.198500
     62 H14          4.4890     0.6800     0.7690 H          1 ASB       0.201750
     63 H15          2.9410     2.5630    -0.0820 H          1 ASB       0.341750
     64 H16          0.9350     2.4780     1.9700 H          1 ASB       0.086950
     65 H17          1.8100     3.8930     1.3340 H          1 ASB       0.086950
     66 H18          0.7840     3.1380    -1.6820 H          1 ASB       0.144750
     67 H19         -1.6450     2.8950    -3.6220 H          1 ASB       0.062367
     68 H20         -1.9310     4.6530    -3.6570 H          1 ASB       0.062367
     69 H21         -0.2800     4.0370    -3.7030 H          1 ASB       0.062367
     70 H22         -3.2380     4.6230    -1.5690 H          1 ASB       0.144750
     71 H23         -3.7420     5.8240     0.8900 H          1 ASB       0.086950
     72 H24         -3.4150     4.6970     2.2070 H          1 ASB       0.086950
     73 H25         -5.5370     4.5360     0.4540 H          1 ASB       0.341750
     74 H26         -4.0630     2.6210     3.5030 H          1 ASB       0.201750
     75 H27         -2.3720     1.0700     4.4410 H          1 ASB       0.198500
     76 H28         -1.3680    -0.6480     2.9760 H          1 ASB       0.201750
     77 H29         -2.0800    -2.5610     1.9330 H          1 ASB       0.341750
     78 H30         -1.6090    -3.4700    -0.7830 H          1 ASB       0.086950
     79 H31         -1.7450    -4.4400     0.6960 H          1 ASB       0.086950
     80 H32         -2.8830     1.0150    -1.3200 H          1 ASB       0.115700
     81 H33         -4.1460    -0.2380    -0.9440 H          1 ASB       0.115700
     82 H34         -4.5430     1.4810    -1.0080 H          1 ASB       0.115700
     83 H35         -0.6040     5.2350     3.9390 H          1 ASB       0.054700
     84 H36         -1.3200     6.0580     2.5420 H          1 ASB       0.054700
     85 H37          0.3810     5.4840     2.4870 H          1 ASB       0.054700
     86 H38          0.5750    -1.4440    -1.3420 H          1 ASB       0.115700
     87 H39          1.0430    -1.2500    -3.0430 H          1 ASB       0.115700
     88 H40          0.7650     0.1900    -2.0800 H          1 ASB       0.115700
@<TRIPOS>BOND
     1     1     2 1   
     2     1    49 1   
     3     1    50 1   
     4     1    51 1   
     5     2     3 1   
     6     3     4 ar  
     7     3     9 ar  
     8     4     5 ar  
     9     4    41 1   
    10     5     6 ar  
    11     5    52 1   
    12     6     7 1   
    13     6     8 ar  
    14     7    53 1   
    15     7    54 1   
    16     7    55 1   
    17     8     9 ar  
    18     8    56 1   
    19     9    10 1   
    20    10    11 1   
    21    10    57 1   
    22    10    58 1   
    23    11    12 1   
    24    11    59 1   
    25    12    13 1   
    26    12    14 2   
    27    14    15 1   
    28    14    47 1   
    29    15    16 2   
    30    15    60 1   
    31    16    17 1   
    32    16    61 1   
    33    17    18 2   
    34    17    62 1   
    35    18    19 1   
    36    18    47 1   
    37    19    20 2   
    38    19    21 1   
    39    21    22 1   
    40    21    63 1   
    41    22    23 1   
    42    22    64 1   
    43    22    65 1   
    44    23    24 ar  
    45    23    44 ar  
    46    24    25 ar  
    47    24    66 1   
    48    25    26 1   
    49    25    27 ar  
    50    26    67 1   
    51    26    68 1   
    52    26    69 1   
    53    27    28 ar  
    54    27    70 1   
    55    28    29 1   
    56    28    44 ar  
    57    29    30 1   
    58    29    71 1   
    59    29    72 1   
    60    30    31 1   
    61    30    73 1   
    62    31    32 1   
    63    31    33 2   
    64    33    34 1   
    65    33    42 1   
    66    34    35 2   
    67    34    74 1   
    68    35    36 1   
    69    35    75 1   
    70    36    37 2   
    71    36    76 1   
    72    37    38 1   
    73    37    42 1   
    74    38    39 2   
    75    38    40 1   
    76    40    41 1   
    77    40    77 1   
    78    41    78 1   
    79    41    79 1   
    80    42    43 1   
    81    43    80 1   
    82    43    81 1   
    83    43    82 1   
    84    44    45 1   
    85    45    46 1   
    86    46    83 1   
    87    46    84 1   
    88    46    85 1   
    89    47    48 1   
    90    48    86 1   
    91    48    87 1   
    92    48    88 1   
@<TRIPOS>SUBSTRUCTURE
     1 ASB         1 TEMP              0 ****  ****    0 ROOT
