@<TRIPOS>MOLECULE
155
   98   103     1     0     0
SMALL
bcc


@<TRIPOS>ATOM
      1 C            4.9050    -4.3380    -2.6930 C          0 155      -0.034300
      2 C1           5.0430    -3.9300    -1.2490 C          0 155      -0.048100
      3 C2           5.5700    -2.7450    -0.8090 C          0 155      -0.092600
      4 S            6.2280    -1.2200    -1.4410 S          0 155      -0.075050
      5 C3           6.1860    -0.1160    -0.0210 C          0 155       0.053800
      6 C4           6.0390     1.1870     0.0230 C          0 155       0.053800
      7 S1           5.8260     2.3660    -1.3190 S          0 155      -0.075050
      8 C5           4.8420     3.6580    -0.5940 C          0 155      -0.092600
      9 C6           4.0630     4.7260    -0.9600 C          0 155      -0.048100
     10 C7           3.8570     5.2070    -2.3730 C          0 155      -0.034300
     11 N            3.4950     5.2930     0.1700 N          0 155      -0.052600
     12 C8           2.4430     6.2990     0.2060 C          0 155       0.030800
     13 C9           1.1200     5.5840    -0.0990 C          0 155       0.103900
     14 O            0.0170     6.4790    -0.0010 O          0 155      -0.424600
     15 C10         -1.1490     5.6710     0.1880 C          0 155       0.109900
     16 C11         -2.3630     6.3470    -0.4510 C          0 155       0.092400
     17 O1          -3.5250     6.0930     0.3400 O          0 155      -0.431600
     18 C12         -4.4950     5.4790    -0.5100 C          0 155       0.124900
     19 C13         -5.6020     4.8510     0.3400 C          0 155       0.103400
     20 O2          -6.7750     4.6600    -0.4530 O          0 155      -0.432100
     21 C14         -7.6640     3.8320     0.3000 C          0 155       0.109400
     22 C15         -8.1760     2.6910    -0.5790 C          0 155       0.121400
     23 O3          -9.2820     2.0480     0.0580 O          0 155      -0.331900
     24 C16         -9.0170     0.7140     0.0440 C          0 155       0.088100
     25 C17         -8.8890     0.0140     1.2340 C          0 155      -0.144500
     26 C18         -8.6170    -1.3410     1.2140 C          0 155      -0.144500
     27 C19         -8.4710    -1.9990     0.0020 C          0 155       0.088100
     28 O4          -8.2000    -3.3330    -0.0240 O          0 155      -0.331900
     29 C20         -6.8130    -3.4570    -0.3550 C          0 155       0.121400
     30 C21         -6.3190    -4.8680    -0.0290 C          0 155       0.109400
     31 O5          -4.9140    -4.8370     0.2400 O          0 155      -0.432100
     32 C22         -4.4250    -6.1700     0.0800 C          0 155       0.103400
     33 C23         -3.1150    -6.3440     0.8480 C          0 155       0.124900
     34 O6          -2.0650    -6.6870    -0.0540 O          0 155      -0.431600
     35 C24         -0.8300    -6.4820     0.6280 C          0 155       0.092400
     36 C25          0.3200    -6.4620    -0.3760 C          0 155       0.109900
     37 O7           1.5740    -6.3670     0.3070 O          0 155      -0.424600
     38 C26          2.4620    -5.6590    -0.5620 C          0 155       0.103900
     39 C27          3.9220    -5.9560    -0.2030 C          0 155       0.030800
     40 N1           4.6510    -4.6960    -0.1600 N          0 155      -0.052600
     41 C28          5.0540    -3.9980     0.9650 C          0 155      -0.048100
     42 C29          4.9360    -4.4940     2.3830 C          0 155      -0.034300
     43 C30          5.5890    -2.7980     0.5970 C          0 155      -0.092600
     44 S2           6.2500    -1.3110     1.3190 S          0 155      -0.075050
     45 C31         -8.6000    -1.3000    -1.1890 C          0 155      -0.144500
     46 C32         -8.8710     0.0540    -1.1670 C          0 155      -0.144500
     47 C33          4.0520     4.6360     1.2560 C          0 155      -0.048100
     48 C34          3.8200     4.9950     2.7020 C          0 155      -0.034300
     49 C35          4.8450     3.6080     0.8130 C          0 155      -0.092600
     50 S3           5.8320     2.2710     1.4430 S          0 155      -0.075050
     51 H            5.8060    -4.8630    -3.0100 H          0 155       0.054117
     52 H1           4.0430    -4.9950    -2.8040 H          0 155       0.054117
     53 H2           4.7660    -3.4490    -3.3100 H          0 155       0.054117
     54 H3           2.9960     4.6990    -2.8080 H          0 155       0.054117
     55 H4           3.6800     6.2830    -2.3680 H          0 155       0.054117
     56 H5           4.7460     4.9880    -2.9650 H          0 155       0.054117
     57 H6           2.3990     6.7540     1.1960 H          0 155       0.072450
     58 H7           2.6340     7.0640    -0.5470 H          0 155       0.072450
     59 H8           1.1590     5.1750    -1.1090 H          0 155       0.049200
     60 H9           0.9820     4.7680     0.6100 H          0 155       0.049200
     61 H10         -0.9920     4.6970    -0.2740 H          0 155       0.063950
     62 H11         -1.3280     5.5390     1.2550 H          0 155       0.063950
     63 H12         -2.1910     7.4220    -0.5090 H          0 155       0.056450
     64 H13         -2.5130     5.9500    -1.4550 H          0 155       0.056450
     65 H14         -4.9270     6.2310    -1.1700 H          0 155       0.058450
     66 H15         -4.0150     4.7050    -1.1090 H          0 155       0.058450
     67 H16         -5.2630     3.8890     0.7230 H          0 155       0.039700
     68 H17         -5.8340     5.5100     1.1770 H          0 155       0.039700
     69 H18         -7.1350     3.4190     1.1590 H          0 155       0.045700
     70 H19         -8.5080     4.4290     0.6480 H          0 155       0.045700
     71 H20         -8.4950     3.0900    -1.5420 H          0 155       0.067200
     72 H21         -7.3770     1.9670    -0.7350 H          0 155       0.067200
     73 H22         -9.0020     0.5270     2.1770 H          0 155       0.147250
     74 H23         -8.5180    -1.8860     2.1410 H          0 155       0.147250
     75 H24         -6.6760    -3.2630    -1.4190 H          0 155       0.067200
     76 H25         -6.2380    -2.7310     0.2200 H          0 155       0.067200
     77 H26         -6.8480    -5.2440     0.8470 H          0 155       0.045700
     78 H27         -6.5120    -5.5250    -0.8770 H          0 155       0.045700
     79 H28         -5.1640    -6.8750     0.4620 H          0 155       0.039700
     80 H29         -4.2520    -6.3680    -0.9780 H          0 155       0.039700
     81 H30         -2.8660    -5.4120     1.3550 H          0 155       0.058450
     82 H31         -3.2310    -7.1370     1.5870 H          0 155       0.058450
     83 H32         -0.8630    -5.5320     1.1600 H          0 155       0.056450
     84 H33         -0.6720    -7.2910     1.3420 H          0 155       0.056450
     85 H34          0.2990    -7.3770    -0.9680 H          0 155       0.063950
     86 H35          0.2040    -5.6040    -1.0390 H          0 155       0.063950
     87 H36          2.2770    -5.9650    -1.5920 H          0 155       0.049200
     88 H37          2.2790    -4.5890    -0.4680 H          0 155       0.049200
     89 H38          3.9670    -6.4410     0.7720 H          0 155       0.072450
     90 H39          4.3590    -6.6080    -0.9590 H          0 155       0.072450
     91 H40          5.8410    -5.0380     2.6550 H          0 155       0.054117
     92 H41          4.8070    -3.6450     3.0550 H          0 155       0.054117
     93 H42          4.0750    -5.1570     2.4660 H          0 155       0.054117
     94 H43         -8.4900    -1.8130    -2.1330 H          0 155       0.147250
     95 H44         -8.9690     0.5990    -2.0940 H          0 155       0.147250
     96 H45          2.9570     4.4450     3.0780 H          0 155       0.054117
     97 H46          4.7010     4.7330     3.2870 H          0 155       0.054117
     98 H47          3.6330     6.0650     2.7850 H          0 155       0.054117
@<TRIPOS>BOND
     1     1     2 1   
     2     1    51 1   
     3     1    52 1   
     4     1    53 1   
     5     2     3 2   
     6     2    40 1   
     7     3     4 1   
     8     3    43 1   
     9     4     5 1   
    10     5     6 2   
    11     5    44 1   
    12     6     7 1   
    13     6    50 1   
    14     7     8 1   
    15     8     9 2   
    16     8    49 1   
    17     9    10 1   
    18     9    11 1   
    19    10    54 1   
    20    10    55 1   
    21    10    56 1   
    22    11    12 1   
    23    11    47 1   
    24    12    13 1   
    25    12    57 1   
    26    12    58 1   
    27    13    14 1   
    28    13    59 1   
    29    13    60 1   
    30    14    15 1   
    31    15    16 1   
    32    15    61 1   
    33    15    62 1   
    34    16    17 1   
    35    16    63 1   
    36    16    64 1   
    37    17    18 1   
    38    18    19 1   
    39    18    65 1   
    40    18    66 1   
    41    19    20 1   
    42    19    67 1   
    43    19    68 1   
    44    20    21 1   
    45    21    22 1   
    46    21    69 1   
    47    21    70 1   
    48    22    23 1   
    49    22    71 1   
    50    22    72 1   
    51    23    24 1   
    52    24    25 ar  
    53    24    46 ar  
    54    25    26 ar  
    55    25    73 1   
    56    26    27 ar  
    57    26    74 1   
    58    27    28 1   
    59    27    45 ar  
    60    28    29 1   
    61    29    30 1   
    62    29    75 1   
    63    29    76 1   
    64    30    31 1   
    65    30    77 1   
    66    30    78 1   
    67    31    32 1   
    68    32    33 1   
    69    32    79 1   
    70    32    80 1   
    71    33    34 1   
    72    33    81 1   
    73    33    82 1   
    74    34    35 1   
    75    35    36 1   
    76    35    83 1   
    77    35    84 1   
    78    36    37 1   
    79    36    85 1   
    80    36    86 1   
    81    37    38 1   
    82    38    39 1   
    83    38    87 1   
    84    38    88 1   
    85    39    40 1   
    86    39    89 1   
    87    39    90 1   
    88    40    41 1   
    89    41    42 1   
    90    41    43 2   
    91    42    91 1   
    92    42    92 1   
    93    42    93 1   
    94    43    44 1   
    95    45    46 ar  
    96    45    94 1   
    97    46    95 1   
    98    47    48 1   
    99    47    49 2   
   100    48    96 1   
   101    48    97 1   
   102    48    98 1   
   103    49    50 1   
@<TRIPOS>SUBSTRUCTURE
     1 155         1 TEMP              0 ****  ****    0 ROOT
