@<TRIPOS>MOLECULE
URE
  168   171     1     0     0
SMALL
bcc


@<TRIPOS>ATOM
      1 C1          -5.9070     2.1790    -2.6070 C          1 URE      -0.089600
      2 C2          -4.6340     1.7360    -1.8970 C          1 URE      -0.060600
      3 C3          -4.9410     0.7870    -0.7400 C          1 URE      -0.018133
      4 C4          -5.2620     1.3080     0.5490 C          1 URE      -0.131133
      5 C5          -4.9850     2.7790     0.8490 C          1 URE       0.115467
      6 N1          -3.5640     2.9190     1.1260 N           1 URE      -0.533400
      7 C6          -2.8080     3.8290     0.4630 C           1 URE       0.745100
      8 O1          -3.2700     4.7590    -0.1860 O           1 URE      -0.641267
      9 N2          -1.4720     3.6010     0.4520 N           1 URE      -0.556567
     10 C7          -0.6200     2.7700     1.3180 C          1 URE       0.049700
     11 C8          -0.7250     1.2880     0.9340 C           1 URE       0.620267
     12 O2          -0.2530     0.3630     1.5810 O           1 URE      -0.529333
     13 O3          -1.3820     1.0760    -0.2340 O          1 URE      -0.589767
     14 C9          -0.8100     2.9460     2.8290 C          1 URE      -0.056133
     15 S1          -0.7300     4.6550     3.4990 S          1 URE      -0.147267
     16 S2           1.0720     5.3950     2.8360 S          1 URE      -0.147267
     17 C10          0.5590     6.4840     1.4470 C          1 URE      -0.056133
     18 C11          1.6870     6.7870     0.4480 C          1 URE       0.049700
     19 C12          2.7470     7.7090     1.0440 C           1 URE       0.620267
     20 O4           3.9570     7.5370     0.9730 O           1 URE      -0.529333
     21 O5           2.2510     8.8230     1.6130 O          1 URE      -0.589767
     22 N3           2.3700     5.5920    -0.0650 N           1 URE      -0.556567
     23 C13          1.7370     4.6510    -0.8080 C           1 URE       0.745100
     24 O6           0.5430     4.7140    -1.0860 O           1 URE      -0.641267
     25 N4           2.4750     3.5720    -1.1610 N           1 URE      -0.533400
     26 C14          3.8440     3.2770    -0.7860 C          1 URE       0.115467
     27 C15          4.1540     1.7950    -0.9360 C          1 URE      -0.131133
     28 C16          4.7000     1.2960    -2.1530 C          1 URE      -0.018133
     29 C17          5.0230     2.2620    -3.2890 C          1 URE      -0.060600
     30 C18          6.4300     2.8380    -3.1760 C          1 URE      -0.089600
     31 C19          4.9760    -0.0960    -2.2890 C          1 URE      -0.131133
     32 C20          5.5730    -0.6310    -3.5860 C          1 URE       0.115467
     33 N5           4.5210    -0.9190    -4.5420 N           1 URE      -0.533400
     34 C21          4.4470    -2.1020    -5.2030 C           1 URE       0.745100
     35 O7           5.2200    -3.0410    -5.0660 O           1 URE      -0.641267
     36 N6           3.4120    -2.1530    -6.0850 N           1 URE      -0.556567
     37 C22          2.9050    -3.4140    -6.6560 C          1 URE       0.049700
     38 C23          3.8300    -4.1810    -7.6180 C           1 URE       0.620267
     39 O8           3.3870    -4.9110    -8.4990 O           1 URE      -0.529333
     40 O9           5.1550    -4.0960    -7.3900 O          1 URE      -0.589767
     41 C24          2.3810    -4.4060    -5.6050 C          1 URE      -0.056133
     42 S3           0.8110    -3.8550    -4.8190 S          1 URE      -0.147267
     43 S4           1.3600    -3.2890    -2.9180 S          1 URE      -0.147267
     44 C25          1.2810    -1.4610    -2.9630 C          1 URE      -0.056133
     45 C26         -0.1250    -0.8940    -2.7090 C          1 URE       0.049700
     46 C27         -0.0020     0.6380    -2.8140 C           1 URE       0.620267
     47 O10          0.8270     1.3140    -2.2160 O           1 URE      -0.529333
     48 O11         -0.9010     1.2100    -3.6480 O          1 URE      -0.589767
     49 N7          -1.1190    -1.4040    -3.6720 N           1 URE      -0.556567
     50 C28         -2.4560    -1.5830    -3.5450 C           1 URE       0.745100
     51 O12         -3.0720    -2.0910    -4.4740 O           1 URE      -0.641267
     52 N8          -3.0410    -1.0710    -2.4350 N           1 URE      -0.533400
     53 C29         -4.4850    -1.1700    -2.3000 C          1 URE       0.115467
     54 C30         -4.9550    -0.6200    -0.9620 C          1 URE      -0.131133
     55 C31         -5.3700    -1.4970     0.0790 C          1 URE      -0.018133
     56 C32         -5.3480    -3.0080    -0.1360 C          1 URE      -0.060600
     57 C33         -6.6160    -3.5250    -0.8040 C          1 URE      -0.089600
     58 C34         -5.8250    -0.9630     1.3200 C          1 URE      -0.131133
     59 C35         -6.4190    -1.8860     2.3750 C          1 URE       0.115467
     60 N9          -5.4310    -2.3130     3.3380 N           1 URE      -0.533400
     61 C36         -5.7980    -3.2110     4.2940 C           1 URE       0.745100
     62 O13         -6.9320    -3.6530     4.4240 O           1 URE      -0.641267
     63 N10         -4.8080    -3.6090     5.1300 N           1 URE      -0.556567
     64 C37         -3.6340    -2.8140     5.5130 C          1 URE       0.049700
     65 C38         -3.6060    -2.7540     7.0370 C           1 URE       0.620267
     66 O14         -4.1170    -3.5580     7.8010 O           1 URE      -0.529333
     67 O15         -2.9070    -1.7040     7.5120 O          1 URE      -0.589767
     68 C39         -2.3210    -3.4380     5.0380 C          1 URE      -0.056133
     69 S5          -2.0620    -3.1650     3.2460 S          1 URE      -0.147267
     70 S6          -0.1960    -3.9830     2.9580 S          1 URE      -0.147267
     71 C40          0.9000    -2.6490     3.5580 C          1 URE      -0.056133
     72 C41          2.3750    -3.0530     3.5560 C          1 URE       0.049700
     73 C42          2.6230    -4.1260     4.6130 C           1 URE       0.620267
     74 O16          2.6150    -3.9470     5.8230 O           1 URE      -0.529333
     75 O17          2.8730    -5.3440     4.0970 O          1 URE      -0.589767
     76 N11          3.2110    -1.8990     3.9390 N           1 URE      -0.556567
     77 C43          4.4290    -1.6500     3.4110 C           1 URE       0.745100
     78 O18          5.3720    -1.3910     4.1530 O           1 URE      -0.641267
     79 N12          4.5920    -1.6380     2.0740 N           1 URE      -0.533400
     80 C44          3.5780    -1.4620     1.0590 C          1 URE       0.115467
     81 C45          4.0270    -0.5060    -0.0400 C          1 URE      -0.131133
     82 C46          3.8330     0.8980     0.1270 C          1 URE      -0.018133
     83 C47          3.3280     1.4610     1.4570 C          1 URE      -0.060600
     84 C48          4.4680     1.8840     2.3770 C          1 URE      -0.089600
     85 C49          4.6320    -1.0000    -1.2350 C          1 URE      -0.018133
     86 C50          4.9450    -2.4880    -1.3910 C          1 URE      -0.060600
     87 C51          6.3360    -2.8460    -0.8870 C          1 URE      -0.089600
     88 C52         -5.7070     0.4320     1.5790 C          1 URE      -0.018133
     89 C53         -6.0780     0.9860     2.9520 C          1 URE      -0.060600
     90 C54         -7.5020     1.5260     2.9910 C          1 URE      -0.089600
     91 H1          -6.5840     2.7060    -1.9270 H          1 URE       0.040478
     92 H2          -6.4510     1.3250    -3.0230 H          1 URE       0.040478
     93 H3          -5.6620     2.8570    -3.4310 H          1 URE       0.040478
     94 H4          -3.9540     1.2860    -2.6250 H          1 URE       0.059950
     95 H5          -4.0790     2.6120    -1.5610 H          1 URE       0.059950
     96 H6          -5.3080     3.4220     0.0260 H          1 URE       0.073950
     97 H7          -5.5230     3.1520     1.7220 H          1 URE       0.073950
     98 H8          -3.1320     2.0820     1.4760 H          1 URE       0.318000
     99 H9          -0.9690     4.2750    -0.1340 H          1 URE       0.331833
    100 H10          0.4060     3.0430     1.0560 H          1 URE       0.112200
    101 H11         -1.5960     1.9510    -0.6410 H          1 URE       0.460667
    102 H12         -1.7770     2.5390     3.1430 H          1 URE       0.105283
    103 H13         -0.0580     2.3570     3.3670 H          1 URE       0.105283
    104 H14         -0.2710     6.0120     0.9190 H          1 URE       0.105283
    105 H15          0.1690     7.4100     1.8810 H          1 URE       0.105283
    106 H16          1.2690     7.3090    -0.4220 H          1 URE       0.112200
    107 H17          3.0390     9.3160     1.9260 H          1 URE       0.460667
    108 H18          3.3710     5.6860    -0.1840 H          1 URE       0.331833
    109 H19          1.9540     2.8520    -1.6650 H          1 URE       0.318000
    110 H20          4.4970     3.9090    -1.3920 H          1 URE       0.073950
    111 H21          4.0300     3.6230     0.2330 H          1 URE       0.073950
    112 H22          4.2870     3.0720    -3.3290 H          1 URE       0.059950
    113 H23          4.9040     1.7790    -4.2630 H          1 URE       0.059950
    114 H24          6.6210     3.5270    -4.0040 H          1 URE       0.040478
    115 H25          7.1910     2.0510    -3.2110 H          1 URE       0.040478
    116 H26          6.5710     3.3860    -2.2400 H          1 URE       0.040478
    117 H27          6.2060    -1.5050    -3.4180 H          1 URE       0.073950
    118 H28          6.2490     0.0930    -4.0500 H          1 URE       0.073950
    119 H29          4.0260    -0.1280    -4.9210 H          1 URE       0.318000
    120 H30          2.7110    -1.4380    -5.9660 H          1 URE       0.331833
    121 H31          2.0730    -3.0890    -7.2960 H          1 URE       0.112200
    122 H32          5.3820    -3.6600    -6.5350 H          1 URE       0.460667
    123 H33          3.1300    -4.6270    -4.8370 H          1 URE       0.105283
    124 H34          2.1460    -5.3630    -6.0850 H          1 URE       0.105283
    125 H35          1.9540    -1.0990    -2.1820 H          1 URE       0.105283
    126 H36          1.6840    -1.1030    -3.9160 H          1 URE       0.105283
    127 H37         -0.4610    -1.1350    -1.6950 H          1 URE       0.112200
    128 H38         -1.5010     0.5330    -4.0290 H          1 URE       0.460667
    129 H39         -0.7620    -1.9430    -4.4580 H          1 URE       0.331833
    130 H40         -2.5260    -1.1120    -1.5670 H          1 URE       0.318000
    131 H41         -4.7680    -2.2120    -2.4640 H          1 URE       0.073950
    132 H42         -4.9580    -0.6320    -3.1300 H          1 URE       0.073950
    133 H43         -4.4650    -3.2940    -0.7190 H          1 URE       0.059950
    134 H44         -5.1910    -3.5330     0.8120 H          1 URE       0.059950
    135 H45         -6.7730    -3.0740    -1.7880 H          1 URE       0.040478
    136 H46         -6.5540    -4.6100    -0.9370 H          1 URE       0.040478
    137 H47         -7.5060    -3.3110    -0.2030 H          1 URE       0.040478
    138 H48         -6.8840    -2.7700     1.9290 H          1 URE       0.073950
    139 H49         -7.2440    -1.4010     2.9080 H          1 URE       0.073950
    140 H50         -4.4970    -2.4560     2.9760 H          1 URE       0.318000
    141 H51         -5.1620    -4.2420     5.8440 H          1 URE       0.331833
    142 H52         -3.7580    -1.7850     5.1560 H          1 URE       0.112200
    143 H53         -2.9830    -1.7810     8.4890 H          1 URE       0.460667
    144 H54         -2.3140    -4.5160     5.2370 H          1 URE       0.105283
    145 H55         -1.4790    -2.9880     5.5750 H          1 URE       0.105283
    146 H56          0.7580    -1.7770     2.9120 H          1 URE       0.105283
    147 H57          0.5940    -2.3650     4.5710 H          1 URE       0.105283
    148 H58          2.6980    -3.4400     2.5860 H          1 URE       0.112200
    149 H59          3.0420    -5.9170     4.8750 H          1 URE       0.460667
    150 H60          3.2740    -1.7850     4.9480 H          1 URE       0.331833
    151 H61          5.5360    -1.3840     1.8140 H          1 URE       0.318000
    152 H62          2.6330    -1.1320     1.4940 H          1 URE       0.073950
    153 H63          3.3350    -2.4500     0.6690 H          1 URE       0.073950
    154 H64          2.6870     0.7570     1.9900 H          1 URE       0.059950
    155 H65          2.6600     2.3100     1.2830 H          1 URE       0.059950
    156 H66          5.1390     1.0510     2.6000 H          1 URE       0.040478
    157 H67          5.0790     2.6780     1.9370 H          1 URE       0.040478
    158 H68          4.0660     2.2580     3.3240 H          1 URE       0.040478
    159 H69          4.8420    -2.7970    -2.4340 H          1 URE       0.059950
    160 H70          4.2050    -3.1180    -0.8950 H          1 URE       0.059950
    161 H71          6.4370    -2.6590     0.1850 H          1 URE       0.040478
    162 H72          7.1140    -2.2690    -1.3970 H          1 URE       0.040478
    163 H73          6.5360    -3.9090    -1.0600 H          1 URE       0.040478
    164 H74         -5.3660     1.7610     3.2550 H          1 URE       0.059950
    165 H75         -5.9580     0.2290     3.7320 H          1 URE       0.059950
    166 H76         -7.6490     2.3370     2.2710 H          1 URE       0.040478
    167 H77         -8.2320     0.7440     2.7590 H          1 URE       0.040478
    168 H78         -7.7290     1.9140     3.9880 H          1 URE       0.040478
@<TRIPOS>BOND
     1     1     2 1   
     2     1    91 1   
     3     1    92 1   
     4     1    93 1   
     5     2     3 1   
     6     2    94 1   
     7     2    95 1   
     8     3     4 ar  
     9     3    54 ar  
    10     4     5 1   
    11     4    88 ar  
    12     5     6 1   
    13     5    96 1   
    14     5    97 1   
    15     6     7 1   
    16     6    98 1   
    17     7     8 2   
    18     7     9 1   
    19     9    10 1   
    20     9    99 1   
    21    10    11 1   
    22    10    14 1   
    23    10   100 1   
    24    11    12 2   
    25    11    13 1   
    26    13   101 1   
    27    14    15 1   
    28    14   102 1   
    29    14   103 1   
    30    15    16 1   
    31    16    17 1   
    32    17    18 1   
    33    17   104 1   
    34    17   105 1   
    35    18    19 1   
    36    18    22 1   
    37    18   106 1   
    38    19    20 2   
    39    19    21 1   
    40    21   107 1   
    41    22    23 1   
    42    22   108 1   
    43    23    24 2   
    44    23    25 1   
    45    25    26 1   
    46    25   109 1   
    47    26    27 1   
    48    26   110 1   
    49    26   111 1   
    50    27    28 ar  
    51    27    82 ar  
    52    28    29 1   
    53    28    31 ar  
    54    29    30 1   
    55    29   112 1   
    56    29   113 1   
    57    30   114 1   
    58    30   115 1   
    59    30   116 1   
    60    31    32 1   
    61    31    85 ar  
    62    32    33 1   
    63    32   117 1   
    64    32   118 1   
    65    33    34 1   
    66    33   119 1   
    67    34    35 2   
    68    34    36 1   
    69    36    37 1   
    70    36   120 1   
    71    37    38 1   
    72    37    41 1   
    73    37   121 1   
    74    38    39 2   
    75    38    40 1   
    76    40   122 1   
    77    41    42 1   
    78    41   123 1   
    79    41   124 1   
    80    42    43 1   
    81    43    44 1   
    82    44    45 1   
    83    44   125 1   
    84    44   126 1   
    85    45    46 1   
    86    45    49 1   
    87    45   127 1   
    88    46    47 2   
    89    46    48 1   
    90    48   128 1   
    91    49    50 1   
    92    49   129 1   
    93    50    51 2   
    94    50    52 1   
    95    52    53 1   
    96    52   130 1   
    97    53    54 1   
    98    53   131 1   
    99    53   132 1   
   100    54    55 ar  
   101    55    56 1   
   102    55    58 ar  
   103    56    57 1   
   104    56   133 1   
   105    56   134 1   
   106    57   135 1   
   107    57   136 1   
   108    57   137 1   
   109    58    59 1   
   110    58    88 ar  
   111    59    60 1   
   112    59   138 1   
   113    59   139 1   
   114    60    61 1   
   115    60   140 1   
   116    61    62 2   
   117    61    63 1   
   118    63    64 1   
   119    63   141 1   
   120    64    65 1   
   121    64    68 1   
   122    64   142 1   
   123    65    66 2   
   124    65    67 1   
   125    67   143 1   
   126    68    69 1   
   127    68   144 1   
   128    68   145 1   
   129    69    70 1   
   130    70    71 1   
   131    71    72 1   
   132    71   146 1   
   133    71   147 1   
   134    72    73 1   
   135    72    76 1   
   136    72   148 1   
   137    73    74 2   
   138    73    75 1   
   139    75   149 1   
   140    76    77 1   
   141    76   150 1   
   142    77    78 2   
   143    77    79 1   
   144    79    80 1   
   145    79   151 1   
   146    80    81 1   
   147    80   152 1   
   148    80   153 1   
   149    81    82 ar  
   150    81    85 ar  
   151    82    83 1   
   152    83    84 1   
   153    83   154 1   
   154    83   155 1   
   155    84   156 1   
   156    84   157 1   
   157    84   158 1   
   158    85    86 1   
   159    86    87 1   
   160    86   159 1   
   161    86   160 1   
   162    87   161 1   
   163    87   162 1   
   164    87   163 1   
   165    88    89 1   
   166    89    90 1   
   167    89   164 1   
   168    89   165 1   
   169    90   166 1   
   170    90   167 1   
   171    90   168 1   
@<TRIPOS>SUBSTRUCTURE
     1 URE         1 TEMP              0 ****  ****    0 ROOT
