@<TRIPOS>MOLECULE
ASB
   97   101     1     0     0
SMALL
bcc


@<TRIPOS>ATOM
      1 C           -0.6210    -3.9380    -2.8930 C          0 ASB       0.111700
      2 O           -0.4850    -3.1950    -1.6800 O          0 ASB      -0.393900
      3 C1          -0.4140    -4.1020    -0.6700 C          0 ASB       0.086100
      4 C2          -1.5770    -4.5800    -0.0850 C          0 ASB      -0.123300
      5 C3          -2.9160    -4.1260    -0.5950 C          0 ASB       0.134300
      6 N           -3.1800    -2.7270    -0.1940 N           0 ASB      -0.546900
      7 C4          -4.4840    -2.4340     0.0100 C           0 ASB       0.663700
      8 O1          -5.2600    -3.3670     0.0730 O           0 ASB      -0.564100
      9 C5          -5.0420    -1.0850     0.1630 C          0 ASB      -0.168600
     10 C6          -6.4080    -0.9700     0.4690 C          0 ASB       0.017700
     11 N1          -6.9810     0.2030     0.6080 N          0 ASB       0.022900
     12 C7          -8.4070     0.2670     0.9380 C          0 ASB      -0.032400
     13 C8          -6.3040     1.3200     0.4590 C          0 ASB       0.017700
     14 C9          -4.9370     1.3110     0.1450 C          0 ASB      -0.168600
     15 C10         -4.2910     0.0800     0.0080 C          0 ASB       0.098700
     16 C11         -2.8170     0.0120    -0.2980 C          0 ASB      -0.107800
     17 C12         -4.2680     2.5980    -0.0650 C           0 ASB       0.663700
     18 O2          -4.9640     3.5940    -0.0480 O           0 ASB      -0.564100
     19 N2          -2.9470     2.7730    -0.2760 N           0 ASB      -0.546900
     20 C13         -2.5760     4.1000    -0.8120 C          0 ASB       0.134300
     21 C14         -1.2910     4.5810    -0.1970 C          0 ASB      -0.123300
     22 C15         -1.3210     5.4990     0.8390 C          0 ASB      -0.094000
     23 C16         -0.1380     5.9620     1.3920 C          0 ASB      -0.057300
     24 C17         -0.1730     6.9580     2.5220 C          0 ASB      -0.068800
     25 C18          1.0760     5.5080     0.9050 C          0 ASB      -0.094000
     26 C19          1.1100     4.5870    -0.1260 C          0 ASB      -0.129300
     27 C20          2.4300     4.1230    -0.6740 C          0 ASB       0.133300
     28 N3           2.7110     2.7350    -0.2520 N           0 ASB      -0.544900
     29 C21          4.0210     2.4510    -0.0800 C           0 ASB       0.664700
     30 O3           4.7940     3.3870    -0.0310 O           0 ASB      -0.563100
     31 C22          4.5860     1.1020     0.0540 C          0 ASB      -0.181600
     32 C23          3.8320    -0.0640    -0.0770 C          0 ASB       0.021000
     33 C24          4.4850    -1.2930     0.0350 C          0 ASB      -0.181600
     34 C25          5.8600    -1.3010     0.3100 C          0 ASB       0.103400
     35 C26          6.5750    -2.6200     0.4560 C          0 ASB      -0.101800
     36 N4           6.5390    -0.1840     0.4430 N          0 ASB       0.001900
     37 C27          7.9740    -0.2470     0.7300 C          0 ASB      -0.038400
     38 C28          5.9590     0.9890     0.3240 C          0 ASB       0.103400
     39 C29          6.7860     2.2400     0.4790 C          0 ASB      -0.101800
     40 C30          3.8060    -2.5810    -0.1490 C           0 ASB       0.664700
     41 O4           4.4940    -3.5830    -0.1360 O           0 ASB      -0.563100
     42 N5           2.4760    -2.7420    -0.3320 N           0 ASB      -0.544900
     43 C31          2.0820    -4.0570    -0.8800 C          0 ASB       0.133300
     44 C32          0.8200    -4.5540    -0.2300 C          0 ASB      -0.129300
     45 C33          0.8890    -5.4660     0.8070 C          0 ASB      -0.094000
     46 C34         -0.2720    -5.9390     1.3950 C          0 ASB      -0.057300
     47 C35         -0.1940    -6.9310     2.5260 C          0 ASB      -0.068800
     48 C36         -1.5030    -5.4870     0.9560 C          0 ASB      -0.094000
     49 C37         -0.0750     4.1140    -0.6700 C          0 ASB       0.086100
     50 O5          -0.0440     3.1920    -1.6670 O          0 ASB      -0.393900
     51 C38          0.0500     3.9150    -2.8960 C          0 ASB       0.111700
     52 H           -0.7740    -3.2500    -3.7250 H          0 ASB       0.049700
     53 H1           0.2840    -4.5200    -3.0660 H          0 ASB       0.049700
     54 H2          -1.4760    -4.6090    -2.8150 H          0 ASB       0.049700
     55 H3          -2.9290    -4.1970    -1.6820 H          0 ASB       0.084200
     56 H4          -3.6940    -4.7700    -0.1840 H          0 ASB       0.084200
     57 H5          -2.4730    -2.0720    -0.0850 H          0 ASB       0.328500
     58 H6          -6.9990    -1.8650     0.5920 H          0 ASB       0.233000
     59 H7          -8.5290     0.2780     2.0210 H          0 ASB       0.106367
     60 H8          -8.8360     1.1760     0.5150 H          0 ASB       0.106367
     61 H9          -8.9160    -0.6030     0.5230 H          0 ASB       0.106367
     62 H10         -6.8120     2.2650     0.5810 H          0 ASB       0.233000
     63 H11         -2.2530    -0.0260     0.6340 H          0 ASB       0.093033
     64 H12         -2.6090    -0.8820    -0.8860 H          0 ASB       0.093033
     65 H13         -2.5220     0.8960    -0.8640 H          0 ASB       0.093033
     66 H14         -2.2920     2.0830    -0.0900 H          0 ASB       0.328500
     67 H15         -2.4520     4.0290    -1.8920 H          0 ASB       0.084200
     68 H16         -3.3690     4.8130    -0.5880 H          0 ASB       0.084200
     69 H17         -2.2680     5.8550     1.2160 H          0 ASB       0.155000
     70 H18         -0.1970     6.4270     3.4740 H          0 ASB       0.062033
     71 H19          0.7170     7.5870     2.4790 H          0 ASB       0.062033
     72 H20         -1.0630     7.5810     2.4300 H          0 ASB       0.062033
     73 H21          1.9980     5.8740     1.3320 H          0 ASB       0.156000
     74 H22          2.4030     4.1690    -1.7620 H          0 ASB       0.085700
     75 H23          3.2210     4.7770    -0.3070 H          0 ASB       0.085700
     76 H24          2.0100     2.0800    -0.1090 H          0 ASB       0.321500
     77 H25          2.7690    -0.0170    -0.2600 H          0 ASB       0.191000
     78 H26          6.8240    -3.0100    -0.5310 H          0 ASB       0.105367
     79 H27          7.4900    -2.4760     1.0310 H          0 ASB       0.105367
     80 H28          5.9290    -3.3290     0.9740 H          0 ASB       0.105367
     81 H29          8.5350    -0.1950    -0.2030 H          0 ASB       0.103033
     82 H30          8.2540     0.5900     1.3690 H          0 ASB       0.103033
     83 H31          8.2020    -1.1840     1.2390 H          0 ASB       0.103033
     84 H32          7.0620     2.6170    -0.5060 H          0 ASB       0.105367
     85 H33          6.2060     2.9960     1.0080 H          0 ASB       0.105367
     86 H34          7.6880     2.0110     1.0460 H          0 ASB       0.105367
     87 H35          1.8310    -2.0490    -0.1200 H          0 ASB       0.321500
     88 H36          1.9160    -3.9640    -1.9540 H          0 ASB       0.085700
     89 H37          2.8840    -4.7750    -0.7030 H          0 ASB       0.085700
     90 H38          1.8500    -5.8100     1.1590 H          0 ASB       0.156000
     91 H39         -0.1480    -6.3970     3.4750 H          0 ASB       0.062033
     92 H40         -1.0770    -7.5690     2.5110 H          0 ASB       0.062033
     93 H41          0.7000    -7.5450     2.4110 H          0 ASB       0.062033
     94 H42         -2.4070    -5.8540     1.4170 H          0 ASB       0.155000
     95 H43         -0.0090     3.2190    -3.7330 H          0 ASB       0.049700
     96 H44         -0.7700     4.6300    -2.9600 H          0 ASB       0.049700
     97 H45          1.0000     4.4480    -2.9320 H          0 ASB       0.049700
@<TRIPOS>BOND
     1     1     2 1   
     2     1    52 1   
     3     1    53 1   
     4     1    54 1   
     5     2     3 1   
     6     3     4 ar  
     7     3    44 ar  
     8     4     5 1   
     9     4    48 ar  
    10     5     6 1   
    11     5    55 1   
    12     5    56 1   
    13     6     7 1   
    14     6    57 1   
    15     7     8 2   
    16     7     9 1   
    17     9    10 ar  
    18     9    15 ar  
    19    10    11 2   
    20    10    58 1   
    21    11    12 1   
    22    11    13 1   
    23    12    59 1   
    24    12    60 1   
    25    12    61 1   
    26    13    14 ar  
    27    13    62 1   
    28    14    15 ar  
    29    14    17 1   
    30    15    16 1   
    31    16    63 1   
    32    16    64 1   
    33    16    65 1   
    34    17    18 2   
    35    17    19 1   
    36    19    20 1   
    37    19    66 1   
    38    20    21 1   
    39    20    67 1   
    40    20    68 1   
    41    21    22 ar  
    42    21    49 ar  
    43    22    23 ar  
    44    22    69 1   
    45    23    24 1   
    46    23    25 ar  
    47    24    70 1   
    48    24    71 1   
    49    24    72 1   
    50    25    26 ar  
    51    25    73 1   
    52    26    27 1   
    53    26    49 ar  
    54    27    28 1   
    55    27    74 1   
    56    27    75 1   
    57    28    29 1   
    58    28    76 1   
    59    29    30 2   
    60    29    31 1   
    61    31    32 ar  
    62    31    38 ar  
    63    32    33 ar  
    64    32    77 1   
    65    33    34 ar  
    66    33    40 1   
    67    34    35 1   
    68    34    36 2   
    69    35    78 1   
    70    35    79 1   
    71    35    80 1   
    72    36    37 1   
    73    36    38 1   
    74    37    81 1   
    75    37    82 1   
    76    37    83 1   
    77    38    39 1   
    78    39    84 1   
    79    39    85 1   
    80    39    86 1   
    81    40    41 2   
    82    40    42 1   
    83    42    43 1   
    84    42    87 1   
    85    43    44 1   
    86    43    88 1   
    87    43    89 1   
    88    44    45 ar  
    89    45    46 ar  
    90    45    90 1   
    91    46    47 1   
    92    46    48 ar  
    93    47    91 1   
    94    47    92 1   
    95    47    93 1   
    96    48    94 1   
    97    49    50 1   
    98    50    51 1   
    99    51    95 1   
   100    51    96 1   
   101    51    97 1   
@<TRIPOS>SUBSTRUCTURE
     1 ASB         1 TEMP              0 ****  ****    0 ROOT
