@<TRIPOS>MOLECULE
M
  170   176     1     0     0
SMALL
bcc


@<TRIPOS>ATOM
      1 O1          -4.0690     5.0240    -8.1930 O           1 M        -0.528500
      2 C1          -5.1750     5.2620    -7.7220 C           1 M         0.617600
      3 O2          -6.2050     5.6960    -8.4820 O          1 M        -0.582350
      4 C2          -5.5080     5.0990    -6.2370 C          1 M         0.049450
      5 C3          -6.3610     3.8510    -5.9650 C          1 M        -0.050050
      6 S1          -5.5590     2.2920    -6.5000 S          1 M        -0.144850
      7 S2          -6.5480     0.8780    -5.3860 S          1 M        -0.139350
      8 C4          -5.4510     0.6640    -3.9290 C          1 M        -0.055550
      9 C5          -4.0630     0.0850    -4.2650 C          1 M         0.088950
     10 C6          -3.2150    -0.0410    -2.9950 C           1 M         0.615350
     11 O3          -3.3050     0.6740    -2.0080 O           1 M        -0.548250
     12 O4          -2.2160    -0.9390    -3.1050 O          1 M        -0.601850
     13 N1          -4.0430    -1.0920    -5.1600 N           1 M        -0.550900
     14 C7          -4.7940    -2.2450    -5.1160 C           1 M         0.583850
     15 O5          -4.8630    -2.9670    -6.1080 O           1 M        -0.586600
     16 C8          -5.5570    -2.6120    -3.8930 C          1 M         0.351300
     17 C9          -6.8760    -3.0390    -4.0230 C          1 M        -0.173050
     18 C10         -7.5890    -3.3460    -2.8700 C          1 M        -0.104500
     19 C11         -6.9550    -3.2470    -1.6330 C          1 M        -0.173050
     20 C12         -5.6210    -2.8560    -1.6090 C          1 M         0.351300
     21 N2          -4.9070    -2.5100    -2.7100 N          1 M        -0.640000
     22 C13         -4.8990    -2.8130    -0.3040 C           1 M         0.583850
     23 O6          -5.4680    -2.4380     0.7150 O           1 M        -0.586600
     24 N3          -3.5760    -3.2040    -0.2450 N           1 M        -0.550900
     25 C14         -3.0380    -4.3450    -1.0140 C          1 M         0.088950
     26 C15         -3.1570    -5.5460    -0.0840 C           1 M         0.615350
     27 O7          -2.5940    -5.6450     1.0000 O           1 M        -0.548250
     28 O8          -3.9530    -6.5180    -0.5630 O          1 M        -0.601850
     29 C16         -1.5680    -4.1120    -1.3770 C          1 M        -0.055550
     30 S3          -0.8280    -5.3830    -2.4760 S          1 M        -0.139350
     31 S4           0.3750    -6.4980    -1.2200 S          1 M        -0.144850
     32 C17         -0.7090    -7.8960    -0.7400 C          1 M        -0.050050
     33 C18         -0.6230    -8.2890     0.7470 C          1 M         0.049450
     34 C19         -1.9300    -8.9820     1.1640 C           1 M         0.617600
     35 O9          -3.0210    -8.7820     0.6370 O           1 M        -0.528500
     36 O10         -1.7910    -9.7780     2.2520 O          1 M        -0.582350
     37 N4          -0.4510    -7.1620     1.6570 N           1 M        -0.559900
     38 C20          0.0270    -7.3520     2.9330 C           1 M         0.688450
     39 O11          0.2870    -8.4740     3.3590 O           1 M        -0.607600
     40 C21          0.1350    -6.1300     3.7790 C          1 M        -0.138850
     41 C22          0.1100    -6.2530     5.1720 C          1 M        -0.089750
     42 C23          0.1840    -5.1100     5.9760 C          1 M        -0.123000
     43 C24          0.2960    -3.8340     5.4030 C          1 M        -0.021250
     44 C25          0.3450    -3.7300     4.0040 C          1 M        -0.123000
     45 C26          0.2710    -4.8650     3.1970 C          1 M        -0.089750
     46 C27          0.3910    -2.6200     6.2210 C          1 M        -0.021250
     47 C28          1.5020    -2.3900     7.0490 C          1 M        -0.123000
     48 C29          1.6670    -1.1620     7.6930 C          1 M        -0.089750
     49 C30          0.7150    -0.1580     7.5060 C          1 M        -0.138850
     50 C31         -0.4370    -0.3910     6.7560 C          1 M        -0.089750
     51 C32         -0.5920    -1.6190     6.1150 C          1 M        -0.123000
     52 C33          1.0100     1.2010     7.9920 C           1 M         0.688450
     53 O12          0.9980     1.4500     9.1910 O           1 M        -0.607600
     54 N5           1.3170     2.1630     7.0540 N           1 M        -0.559900
     55 C34          1.8160     1.8970     5.6950 C          1 M         0.049450
     56 C35          3.3500     1.8090     5.7440 C           1 M         0.617600
     57 O13          4.0790     2.5160     6.4330 O           1 M        -0.528500
     58 O14          3.8860     0.8930     4.9040 O          1 M        -0.582350
     59 C36          1.4340     2.9890     4.6910 C          1 M        -0.050050
     60 S5          -0.3430     3.0300     4.2220 S          1 M        -0.144850
     61 S6          -0.6790     1.2220     3.2850 S          1 M        -0.139350
     62 C37         -0.0380     1.4910     1.5890 C          1 M        -0.055550
     63 C38          0.8210     0.3170     1.1040 C          1 M         0.088950
     64 C39          2.1560     0.2840     1.8780 C           1 M         0.615350
     65 O15          2.3060     0.1240     3.0810 O           1 M        -0.548250
     66 O16          3.2210     0.5670     1.0850 O          1 M        -0.601850
     67 N6           1.1860     0.5070    -0.3010 N           1 M        -0.550900
     68 C40          0.7230    -0.2330    -1.3560 C           1 M         0.583850
     69 O17         -0.3170    -0.8780    -1.3540 O           1 M        -0.586600
     70 C41          1.6730    -0.1840    -2.5240 C          1 M         0.351300
     71 C42          1.3110    -0.6430    -3.7800 C          1 M        -0.173050
     72 C43          2.2560    -0.5560    -4.8000 C          1 M        -0.104500
     73 C44          3.5220    -0.0350    -4.5280 C          1 M        -0.173050
     74 C45          3.7980     0.3840    -3.2330 C          1 M         0.351300
     75 N7           2.9000     0.3310    -2.2220 N          1 M        -0.640000
     76 C46          5.1610     0.8910    -2.8710 C           1 M         0.583850
     77 O18          5.9960     1.1340    -3.7350 O           1 M        -0.586600
     78 N8           5.4110     0.9880    -1.5100 N           1 M        -0.550900
     79 C47          6.7760     1.1100    -0.9780 C          1 M         0.088950
     80 C48          7.5150    -0.1980    -1.2860 C           1 M         0.615350
     81 O19          7.0080    -1.3120    -1.2870 O           1 M        -0.548250
     82 O20          8.8300    -0.0660    -1.5380 O          1 M        -0.601850
     83 C49          7.5520     2.3590    -1.4160 C          1 M        -0.055550
     84 S7           6.8110     3.9250    -0.8000 S          1 M        -0.139350
     85 S8           7.9580     4.3800     0.8540 S          1 M        -0.144850
     86 C50          7.0040     3.7520     2.2980 C          1 M        -0.050050
     87 C51          5.9240     4.7390     2.7760 C          1 M         0.049450
     88 C52          5.2700     4.3370     4.1080 C           1 M         0.617600
     89 O21          4.1390     4.6600     4.4570 O           1 M        -0.528500
     90 O22          6.0560     3.6100     4.9240 O          1 M        -0.582350
     91 N9           4.8400     4.9590     1.8150 N           1 M        -0.559900
     92 C53          4.0330     3.9310     1.3990 C           1 M         0.688450
     93 O23          4.1690     2.7590     1.7410 O           1 M        -0.607600
     94 C54          2.9170     4.3120     0.5130 C          1 M        -0.138850
     95 C55          2.7450     3.6250    -0.6850 C          1 M        -0.089750
     96 C56          1.6170     3.8660    -1.4710 C          1 M        -0.123000
     97 C57          0.6440     4.7990    -1.0750 C          1 M        -0.021250
     98 C58          0.8630     5.5120     0.1200 C          1 M        -0.123000
     99 C59          1.9880     5.2710     0.9160 C          1 M        -0.089750
    100 C60         -0.5880     4.9860    -1.8660 C          1 M        -0.021250
    101 C61         -1.8450     5.0390    -1.2440 C          1 M        -0.123000
    102 C62         -3.0190     5.1770    -1.9910 C          1 M        -0.089750
    103 C63         -2.9710     5.2560    -3.3860 C          1 M        -0.138850
    104 C64         -1.7270     5.2260    -4.0220 C          1 M        -0.089750
    105 C65         -0.5530     5.0910    -3.2670 C          1 M        -0.123000
    106 C66         -4.2660     5.3710    -4.1180 C           1 M         0.688450
    107 O24         -5.2980     5.6600    -3.5210 O           1 M        -0.607600
    108 N10         -4.2620     5.1090    -5.4680 N           1 M        -0.559900
    109 H1          -7.0340     5.8850    -8.0030 H          1 M         0.458750
    110 H2          -6.0690     5.9920    -5.9300 H          1 M         0.104950
    111 H3          -6.5780     3.7830    -4.8930 H          1 M         0.102200
    112 H4          -7.3130     3.9270    -6.5010 H          1 M         0.102200
    113 H5          -5.9760     0.0200    -3.2170 H          1 M         0.112075
    114 H6          -5.3500     1.6360    -3.4300 H          1 M         0.112075
    115 H7          -3.5180     0.8460    -4.8410 H          1 M         0.102700
    116 H8          -1.7290    -0.8950    -2.2410 H          1 M         0.468500
    117 H9          -3.5960    -0.9660    -6.0580 H          1 M         0.343500
    118 H10         -7.3350    -3.1200    -5.0040 H          1 M         0.175500
    119 H11         -8.6250    -3.6690    -2.9320 H          1 M         0.157500
    120 H12         -7.4780    -3.4890    -0.7130 H          1 M         0.175500
    121 H13         -3.2330    -3.1310     0.7090 H          1 M         0.343500
    122 H14         -3.6370    -4.5270    -1.9090 H          1 M         0.102700
    123 H15         -3.8940    -7.2940     0.0540 H          1 M         0.468500
    124 H16         -1.5010    -3.1770    -1.9360 H          1 M         0.112075
    125 H17         -0.9460    -3.9810    -0.4830 H          1 M         0.112075
    126 H18         -0.4370    -8.7620    -1.3560 H          1 M         0.102200
    127 H19         -1.7280    -7.6460    -1.0280 H          1 M         0.102200
    128 H20          0.2070    -8.9930     0.8770 H          1 M         0.104950
    129 H21         -0.9260    -9.6300     2.7170 H          1 M         0.458750
    130 H22         -1.0820    -6.3700     1.5250 H          1 M         0.335750
    131 H23          0.0180    -7.2320     5.6350 H          1 M         0.151875
    132 H24          0.1380    -5.2180     7.0580 H          1 M         0.145500
    133 H25          0.4540    -2.7550     3.5340 H          1 M         0.145500
    134 H26          0.3410    -4.7440     2.1200 H          1 M         0.151875
    135 H27          2.2740    -3.1480     7.1590 H          1 M         0.145500
    136 H28          2.5540    -0.9710     8.2920 H          1 M         0.151875
    137 H29         -1.1840     0.3880     6.6320 H          1 M         0.151875
    138 H30         -1.4740    -1.7850     5.4990 H          1 M         0.145500
    139 H31          1.6250     3.0270     7.4870 H          1 M         0.335750
    140 H32          1.4460     0.9270     5.3650 H          1 M         0.104950
    141 H33          3.2220     0.3970     4.3620 H          1 M         0.458750
    142 H34          2.0140     2.8950     3.7670 H          1 M         0.102200
    143 H35          1.6680     3.9740     5.1050 H          1 M         0.102200
    144 H36         -0.8980     1.6300     0.9270 H          1 M         0.112075
    145 H37          0.5480     2.4150     1.5610 H          1 M         0.112075
    146 H38          0.3210    -0.6510     1.2070 H          1 M         0.102700
    147 H39          3.8500     1.1160     1.6250 H          1 M         0.468500
    148 H40          2.1370     0.8600    -0.4420 H          1 M         0.343500
    149 H41          0.3240    -1.0530    -3.9690 H          1 M         0.175500
    150 H42          2.0150    -0.9080    -5.8020 H          1 M         0.157500
    151 H43          4.2790     0.0250    -5.3030 H          1 M         0.175500
    152 H44          4.7210     0.5380    -0.9130 H          1 M         0.343500
    153 H45          6.6690     1.1280     0.1140 H          1 M         0.102700
    154 H46          9.1170    -0.9680    -1.7900 H          1 M         0.468500
    155 H47          7.6010     2.4350    -2.5040 H          1 M         0.112075
    156 H48          8.5920     2.3200    -1.0750 H          1 M         0.112075
    157 H49          6.6100     2.7560     2.0740 H          1 M         0.102200
    158 H50          7.7460     3.6140     3.0950 H          1 M         0.102200
    159 H51          6.3840     5.7210     2.9570 H          1 M         0.104950
    160 H52          5.4680     3.3290     5.6750 H          1 M         0.458750
    161 H53          4.6900     5.8960     1.4620 H          1 M         0.335750
    162 H54          3.4780     2.8910    -1.0060 H          1 M         0.151875
    163 H55          1.4850     3.2870    -2.3830 H          1 M         0.145500
    164 H56          0.1410     6.2590     0.4510 H          1 M         0.145500
    165 H57          2.1040     5.8000     1.8580 H          1 M         0.151875
    166 H58         -1.9320     4.9440    -0.1610 H          1 M         0.145500
    167 H59         -3.9730     5.2060    -1.4670 H          1 M         0.151875
    168 H60         -1.6320     5.3260    -5.1000 H          1 M         0.151875
    169 H61          0.4010     5.0720    -3.7930 H          1 M         0.145500
    170 H62         -3.4370     4.7630    -5.9470 H          1 M         0.335750
@<TRIPOS>BOND
     1     1     2 2   
     2     2     3 1   
     3     2     4 1   
     4     3   109 1   
     5     4     5 1   
     6     4   108 1   
     7     4   110 1   
     8     5     6 1   
     9     5   111 1   
    10     5   112 1   
    11     6     7 1   
    12     7     8 1   
    13     8     9 1   
    14     8   113 1   
    15     8   114 1   
    16     9    10 1   
    17     9    13 1   
    18     9   115 1   
    19    10    11 2   
    20    10    12 1   
    21    12   116 1   
    22    13    14 1   
    23    13   117 1   
    24    14    15 2   
    25    14    16 1   
    26    16    17 ar  
    27    16    21 ar  
    28    17    18 ar  
    29    17   118 1   
    30    18    19 ar  
    31    18   119 1   
    32    19    20 ar  
    33    19   120 1   
    34    20    21 ar  
    35    20    22 1   
    36    22    23 2   
    37    22    24 1   
    38    24    25 1   
    39    24   121 1   
    40    25    26 1   
    41    25    29 1   
    42    25   122 1   
    43    26    27 2   
    44    26    28 1   
    45    28   123 1   
    46    29    30 1   
    47    29   124 1   
    48    29   125 1   
    49    30    31 1   
    50    31    32 1   
    51    32    33 1   
    52    32   126 1   
    53    32   127 1   
    54    33    34 1   
    55    33    37 1   
    56    33   128 1   
    57    34    35 2   
    58    34    36 1   
    59    36   129 1   
    60    37    38 1   
    61    37   130 1   
    62    38    39 2   
    63    38    40 1   
    64    40    41 ar  
    65    40    45 ar  
    66    41    42 ar  
    67    41   131 1   
    68    42    43 ar  
    69    42   132 1   
    70    43    44 ar  
    71    43    46 1   
    72    44    45 ar  
    73    44   133 1   
    74    45   134 1   
    75    46    47 ar  
    76    46    51 ar  
    77    47    48 ar  
    78    47   135 1   
    79    48    49 ar  
    80    48   136 1   
    81    49    50 ar  
    82    49    52 1   
    83    50    51 ar  
    84    50   137 1   
    85    51   138 1   
    86    52    53 2   
    87    52    54 1   
    88    54    55 1   
    89    54   139 1   
    90    55    56 1   
    91    55    59 1   
    92    55   140 1   
    93    56    57 2   
    94    56    58 1   
    95    58   141 1   
    96    59    60 1   
    97    59   142 1   
    98    59   143 1   
    99    60    61 1   
   100    61    62 1   
   101    62    63 1   
   102    62   144 1   
   103    62   145 1   
   104    63    64 1   
   105    63    67 1   
   106    63   146 1   
   107    64    65 2   
   108    64    66 1   
   109    66   147 1   
   110    67    68 1   
   111    67   148 1   
   112    68    69 2   
   113    68    70 1   
   114    70    71 ar  
   115    70    75 ar  
   116    71    72 ar  
   117    71   149 1   
   118    72    73 ar  
   119    72   150 1   
   120    73    74 ar  
   121    73   151 1   
   122    74    75 ar  
   123    74    76 1   
   124    76    77 2   
   125    76    78 1   
   126    78    79 1   
   127    78   152 1   
   128    79    80 1   
   129    79    83 1   
   130    79   153 1   
   131    80    81 2   
   132    80    82 1   
   133    82   154 1   
   134    83    84 1   
   135    83   155 1   
   136    83   156 1   
   137    84    85 1   
   138    85    86 1   
   139    86    87 1   
   140    86   157 1   
   141    86   158 1   
   142    87    88 1   
   143    87    91 1   
   144    87   159 1   
   145    88    89 2   
   146    88    90 1   
   147    90   160 1   
   148    91    92 1   
   149    91   161 1   
   150    92    93 2   
   151    92    94 1   
   152    94    95 ar  
   153    94    99 ar  
   154    95    96 ar  
   155    95   162 1   
   156    96    97 ar  
   157    96   163 1   
   158    97    98 ar  
   159    97   100 1   
   160    98    99 ar  
   161    98   164 1   
   162    99   165 1   
   163   100   101 ar  
   164   100   105 ar  
   165   101   102 ar  
   166   101   166 1   
   167   102   103 ar  
   168   102   167 1   
   169   103   104 ar  
   170   103   106 1   
   171   104   105 ar  
   172   104   168 1   
   173   105   169 1   
   174   106   107 2   
   175   106   108 1   
   176   108   170 1   
@<TRIPOS>SUBSTRUCTURE
     1 M           1 TEMP              0 ****  ****    0 ROOT
