@<TRIPOS>MOLECULE
7
  124   132     1     0     0
SMALL
bcc


@<TRIPOS>ATOM
      1 C1          -8.0400     3.0680    -3.5380 C          1 7        -0.087100
      2 C2          -7.3000     3.2920    -2.1930 C          1 7         0.038600
      3 C3          -8.2520     4.1500    -1.3200 C          1 7        -0.087100
      4 C4          -7.0270     1.9860    -1.4060 C          1 7        -0.057800
      5 C5          -6.2720     2.0400    -0.2180 C          1 7        -0.132125
      6 C6          -5.9390     0.8780     0.4850 C          1 7        -0.099750
      7 C7          -6.3540    -0.3770     0.0380 C          1 7         0.091150
      8 C8          -7.1240    -0.4400    -1.1300 C          1 7        -0.099750
      9 C9          -7.4610     0.7230    -1.8390 C          1 7        -0.132125
     10 N1          -5.8990    -1.5070     0.7450 N          1 7        -0.201025
     11 N2          -6.6830    -2.4790     0.6940 N          1 7        -0.201025
     12 C10         -6.0970    -3.5730     1.3560 C          1 7         0.091150
     13 C11         -6.4940    -3.9130     2.6510 C          1 7        -0.099750
     14 C12         -5.8880    -4.9770     3.3320 C          1 7        -0.132125
     15 C13         -4.8680    -5.7330     2.7300 C          1 7        -0.057800
     16 C14         -4.5070    -5.4050     1.4070 C          1 7        -0.132125
     17 C15         -5.1140    -4.3430     0.7310 C          1 7        -0.099750
     18 C16         -4.1170    -6.8750     3.4610 C          1 7         0.038600
     19 C17         -4.5230    -7.0350     4.9490 C          1 7        -0.087100
     20 C18         -4.5270    -8.1960     2.7590 C          1 7        -0.087100
     21 C19         -2.5900    -6.6100     3.4480 C          1 7        -0.057800
     22 C20         -1.6520    -7.5510     2.9950 C          1 7        -0.132125
     23 C21         -0.2820    -7.2490     2.9660 C          1 7        -0.099750
     24 C22          0.1900    -5.9990     3.3820 C          1 7         0.091150
     25 C23         -0.7330    -5.0720     3.8680 C          1 7        -0.099750
     26 C24         -2.0980    -5.3700     3.9020 C          1 7        -0.132125
     27 N3           1.5500    -5.6360     3.3590 N          1 7        -0.201025
     28 N4           2.0900    -5.9390     2.2720 N          1 7        -0.201025
     29 C25          3.3910    -5.4070     2.1740 C          1 7         0.091150
     30 C26          4.3290    -5.4690     3.2110 C          1 7        -0.099750
     31 C27          5.6030    -4.9000     3.0680 C          1 7        -0.132125
     32 C28          5.9790    -4.2580     1.8780 C          1 7        -0.057800
     33 C29          5.0420    -4.2400     0.8260 C          1 7        -0.132125
     34 C30          3.7710    -4.8050     0.9740 C          1 7        -0.099750
     35 C31          7.3560    -3.5740     1.6840 C          1 7         0.038600
     36 C32          8.2030    -3.5030     2.9810 C          1 7        -0.087100
     37 C33          8.1510    -4.4650     0.6960 C          1 7        -0.087100
     38 C34          7.1770    -2.1130     1.2000 C          1 7        -0.057800
     39 C35          7.8250    -1.5970     0.0660 C          1 7        -0.132125
     40 C36          7.6010    -0.2790    -0.3570 C          1 7        -0.099750
     41 C37          6.7180     0.5620     0.3320 C          1 7         0.091150
     42 C38          6.1010     0.0660     1.4820 C          1 7        -0.099750
     43 C39          6.3250    -1.2450     1.9110 C          1 7        -0.132125
     44 N5           6.4260     1.8850    -0.0560 N          1 7        -0.201025
     45 N6           6.3650     2.0110    -1.2980 N          1 7        -0.201025
     46 C40          5.8670     3.2770    -1.6660 C          1 7         0.091150
     47 C41          6.2960     4.4750    -1.0830 C          1 7        -0.099750
     48 C42          5.7400     5.7040    -1.4640 C          1 7        -0.132125
     49 C43          4.7420     5.7710    -2.4490 C          1 7        -0.057800
     50 C44          4.3530     4.5640    -3.0630 C          1 7        -0.132125
     51 C45          4.9070     3.3400    -2.6760 C          1 7        -0.099750
     52 C46          4.0510     7.0950    -2.8660 C          1 7         0.038600
     53 C47          4.4400     8.3070    -1.9810 C          1 7        -0.087100
     54 C48          4.5550     7.4230    -4.2950 C          1 7        -0.087100
     55 C49          2.5110     6.9530    -2.7670 C          1 7        -0.057800
     56 C50          1.6430     7.2410    -3.8320 C          1 7        -0.132125
     57 C51          0.2610     7.0380    -3.7130 C          1 7        -0.099750
     58 C52         -0.2940     6.5350    -2.5300 C          1 7         0.091150
     59 C53          0.5570     6.2920    -1.4510 C          1 7        -0.099750
     60 C54          1.9350     6.4970    -1.5640 C          1 7        -0.132125
     61 N7          -1.6680     6.2660    -2.3650 N          1 7        -0.201025
     62 N8          -2.1400     5.6690    -3.3570 N          1 7        -0.201025
     63 C55         -3.4260     5.1610    -3.0890 C          1 7         0.091150
     64 C56         -3.7050     3.8460    -3.4630 C          1 7        -0.099750
     65 C57         -4.9490     3.2720    -3.1920 C          1 7        -0.132125
     66 C58         -5.9630     3.9970    -2.5340 C          1 7        -0.057800
     67 C59         -5.6910     5.3340    -2.2010 C          1 7        -0.132125
     68 C60         -4.4410     5.9060    -2.4790 C          1 7        -0.099750
     69 H1          -8.1870     4.0170    -4.0690 H          1 7         0.041992
     70 H2          -7.4850     2.4060    -4.2140 H          1 7         0.041992
     71 H3          -9.0310     2.6270    -3.3830 H          1 7         0.041992
     72 H4          -9.1650     3.5940    -1.0700 H          1 7         0.041992
     73 H5          -7.7910     4.4520    -0.3720 H          1 7         0.041992
     74 H6          -8.5640     5.0640    -1.8400 H          1 7         0.041992
     75 H7          -5.9020     2.9930     0.1570 H          1 7         0.139375
     76 H8          -5.3280     0.9520     1.3810 H          1 7         0.147312
     77 H9          -7.4490    -1.4040    -1.5130 H          1 7         0.147312
     78 H10         -8.0490     0.6040    -2.7450 H          1 7         0.139375
     79 H11         -7.2680    -3.3290     3.1420 H          1 7         0.147312
     80 H12         -6.2240    -5.1810     4.3440 H          1 7         0.139375
     81 H13         -3.7220    -5.9600     0.8960 H          1 7         0.139375
     82 H14         -4.8000    -4.0960    -0.2800 H          1 7         0.147312
     83 H15         -4.3500    -6.1210     5.5280 H          1 7         0.041992
     84 H16         -5.5830    -7.2970     5.0520 H          1 7         0.041992
     85 H17         -3.9450    -7.8340     5.4310 H          1 7         0.041992
     86 H18         -4.1940    -8.2340     1.7150 H          1 7         0.041992
     87 H19         -4.1080    -9.0710     3.2700 H          1 7         0.041992
     88 H20         -5.6170    -8.3180     2.7550 H          1 7         0.041992
     89 H21         -1.9560    -8.5340     2.6450 H          1 7         0.139375
     90 H22          0.4200    -7.9960     2.6050 H          1 7         0.147312
     91 H23         -0.3880    -4.0990     4.2080 H          1 7         0.147312
     92 H24         -2.7830    -4.6070     4.2690 H          1 7         0.139375
     93 H25          4.0650    -5.9550     4.1470 H          1 7         0.147312
     94 H26          6.2790    -4.9680     3.9160 H          1 7         0.139375
     95 H27          5.2860    -3.7610    -0.1210 H          1 7         0.139375
     96 H28          3.0630    -4.7560     0.1510 H          1 7         0.147312
     97 H29          9.1490    -2.9760     2.8060 H          1 7         0.041992
     98 H30          8.4570    -4.5020     3.3540 H          1 7         0.041992
     99 H31          7.6830    -2.9720     3.7870 H          1 7         0.041992
    100 H32          7.6860    -4.5000    -0.2970 H          1 7         0.041992
    101 H33          9.1800    -4.1070     0.5660 H          1 7         0.041992
    102 H34          8.2150    -5.4980     1.0590 H          1 7         0.041992
    103 H35          8.5100    -2.2020    -0.5210 H          1 7         0.139375
    104 H36          8.1150     0.0880    -1.2420 H          1 7         0.147312
    105 H37          5.4200     0.7030     2.0420 H          1 7         0.147312
    106 H38          5.8040    -1.5930     2.8020 H          1 7         0.139375
    107 H39          7.0610     4.4530    -0.3110 H          1 7         0.147312
    108 H40          6.1020     6.5960    -0.9600 H          1 7         0.139375
    109 H41          3.5880     4.5620    -3.8380 H          1 7         0.139375
    110 H42          4.5680     2.4230    -3.1520 H          1 7         0.147312
    111 H43          3.8960     9.2090    -2.2870 H          1 7         0.041992
    112 H44          4.2120     8.1380    -0.9220 H          1 7         0.041992
    113 H45          5.5100     8.5350    -2.0560 H          1 7         0.041992
    114 H46          4.1800     8.3930    -4.6430 H          1 7         0.041992
    115 H47          5.6510     7.4740    -4.3240 H          1 7         0.041992
    116 H48          4.2490     6.6680    -5.0280 H          1 7         0.041992
    117 H49          2.0150     7.6130    -4.7830 H          1 7         0.139375
    118 H50         -0.3850     7.2580    -4.5590 H          1 7         0.147312
    119 H51          0.1460     5.9120    -0.5190 H          1 7         0.147312
    120 H52          2.5630     6.2650    -0.7060 H          1 7         0.139375
    121 H53         -2.9340     3.2520    -3.9500 H          1 7         0.147312
    122 H54         -5.1100     2.2340    -3.4770 H          1 7         0.139375
    123 H55         -6.4300     5.9570    -1.7070 H          1 7         0.139375
    124 H56         -4.2540     6.9400    -2.1990 H          1 7         0.147312
@<TRIPOS>BOND
     1     1     2 1   
     2     1    69 1   
     3     1    70 1   
     4     1    71 1   
     5     2     3 1   
     6     2     4 1   
     7     2    66 1   
     8     3    72 1   
     9     3    73 1   
    10     3    74 1   
    11     4     5 ar  
    12     4     9 ar  
    13     5     6 ar  
    14     5    75 1   
    15     6     7 ar  
    16     6    76 1   
    17     7     8 ar  
    18     7    10 1   
    19     8     9 ar  
    20     8    77 1   
    21     9    78 1   
    22    10    11 2   
    23    11    12 1   
    24    12    13 ar  
    25    12    17 ar  
    26    13    14 ar  
    27    13    79 1   
    28    14    15 ar  
    29    14    80 1   
    30    15    16 ar  
    31    15    18 1   
    32    16    17 ar  
    33    16    81 1   
    34    17    82 1   
    35    18    19 1   
    36    18    20 1   
    37    18    21 1   
    38    19    83 1   
    39    19    84 1   
    40    19    85 1   
    41    20    86 1   
    42    20    87 1   
    43    20    88 1   
    44    21    22 ar  
    45    21    26 ar  
    46    22    23 ar  
    47    22    89 1   
    48    23    24 ar  
    49    23    90 1   
    50    24    25 ar  
    51    24    27 1   
    52    25    26 ar  
    53    25    91 1   
    54    26    92 1   
    55    27    28 2   
    56    28    29 1   
    57    29    30 ar  
    58    29    34 ar  
    59    30    31 ar  
    60    30    93 1   
    61    31    32 ar  
    62    31    94 1   
    63    32    33 ar  
    64    32    35 1   
    65    33    34 ar  
    66    33    95 1   
    67    34    96 1   
    68    35    36 1   
    69    35    37 1   
    70    35    38 1   
    71    36    97 1   
    72    36    98 1   
    73    36    99 1   
    74    37   100 1   
    75    37   101 1   
    76    37   102 1   
    77    38    39 ar  
    78    38    43 ar  
    79    39    40 ar  
    80    39   103 1   
    81    40    41 ar  
    82    40   104 1   
    83    41    42 ar  
    84    41    44 1   
    85    42    43 ar  
    86    42   105 1   
    87    43   106 1   
    88    44    45 2   
    89    45    46 1   
    90    46    47 ar  
    91    46    51 ar  
    92    47    48 ar  
    93    47   107 1   
    94    48    49 ar  
    95    48   108 1   
    96    49    50 ar  
    97    49    52 1   
    98    50    51 ar  
    99    50   109 1   
   100    51   110 1   
   101    52    53 1   
   102    52    54 1   
   103    52    55 1   
   104    53   111 1   
   105    53   112 1   
   106    53   113 1   
   107    54   114 1   
   108    54   115 1   
   109    54   116 1   
   110    55    56 ar  
   111    55    60 ar  
   112    56    57 ar  
   113    56   117 1   
   114    57    58 ar  
   115    57   118 1   
   116    58    59 ar  
   117    58    61 1   
   118    59    60 ar  
   119    59   119 1   
   120    60   120 1   
   121    61    62 2   
   122    62    63 1   
   123    63    64 ar  
   124    63    68 ar  
   125    64    65 ar  
   126    64   121 1   
   127    65    66 ar  
   128    65   122 1   
   129    66    67 ar  
   130    67    68 ar  
   131    67   123 1   
   132    68   124 1   
@<TRIPOS>SUBSTRUCTURE
     1 7           1 TEMP              0 ****  ****    0 ROOT
