@<TRIPOS>MOLECULE
139
   68    70     1     0     0
SMALL
bcc


@<TRIPOS>ATOM
      1 C            0.1380     4.2290    -1.2970 C          0 139       0.150100
      2 N            0.2290     3.3400    -0.1310 N          0 139      -0.754100
      3 C1           1.3800     3.7960     0.6590 C          0 139       0.149550
      4 C2           2.6390     3.7670    -0.2100 C          0 139       0.074500
      5 N1           3.2530     2.4280    -0.1170 N           0 139      -0.537150
      6 C3           4.6090     2.3870    -0.0130 C           0 139       0.566850
      7 O            5.2530     3.4160     0.0250 O           0 139      -0.606850
      8 C4           5.2920     1.0730     0.0550 C          0 139       0.353550
      9 C5           6.6820     1.0240     0.1760 C          0 139      -0.173550
     10 C6           7.3140    -0.2080     0.2360 C          0 139      -0.111000
     11 C7           6.5370    -1.3530     0.1720 C          0 139      -0.173550
     12 C8           5.1510    -1.2330     0.0510 C          0 139       0.353550
     13 N2           4.5790    -0.0400    -0.0020 N          0 139      -0.649500
     14 C9           4.3150    -2.4540    -0.0230 C           0 139       0.566850
     15 O1           4.8300    -3.5550     0.0070 O           0 139      -0.606850
     16 N3           2.9640    -2.3290    -0.1250 N           0 139      -0.537150
     17 C10          2.1890    -3.5820    -0.2200 C          0 139       0.074500
     18 C11          0.8740    -3.4120     0.5420 C          0 139       0.149550
     19 N4          -0.2300    -3.9640    -0.2550 N          0 139      -0.754100
     20 C12         -0.0150    -5.4150    -0.3250 C          0 139       0.150100
     21 C13         -1.4580    -3.7560     0.5240 C          0 139       0.149550
     22 C14         -2.6510    -3.6390    -0.4270 C          0 139       0.074500
     23 N5          -3.2600    -2.3030    -0.2640 N           0 139      -0.537150
     24 C15         -4.6120    -2.2660    -0.1160 C           0 139       0.566850
     25 O2          -5.2570    -3.2960    -0.0970 O           0 139      -0.606850
     26 C16         -5.2890    -0.9550     0.0210 C          0 139       0.353550
     27 N6          -4.5770     0.1600    -0.0280 N          0 139      -0.649500
     28 C17         -5.1430     1.3500     0.0880 C          0 139       0.353550
     29 C18         -6.5230     1.4670     0.2710 C          0 139      -0.173550
     30 C19         -7.2980     0.3210     0.3300 C          0 139      -0.111000
     31 C20         -6.6720    -0.9090     0.2020 C          0 139      -0.173550
     32 C21         -4.3080     2.5720     0.0210 C           0 139       0.566850
     33 O3          -4.8170     3.6710     0.1200 O           0 139      -0.606850
     34 N7          -2.9640     2.4500    -0.1520 N           0 139      -0.537150
     35 C22         -2.1910     3.7060    -0.2280 C          0 139       0.074500
     36 C23         -0.9680     3.5900     0.6840 C          0 139       0.149550
     37 H            1.1150     4.3000    -1.7760 H          0 139       0.038367
     38 H1          -0.5860     3.8270    -2.0050 H          0 139       0.038367
     39 H2          -0.1810     5.2200    -0.9740 H          0 139       0.038367
     40 H3           1.2020     4.8140     1.0070 H          0 139       0.045700
     41 H4           1.5160     3.1380     1.5170 H          0 139       0.045700
     42 H5           2.3720     3.9760    -1.2460 H          0 139       0.065825
     43 H6           3.3450     4.5180     0.1450 H          0 139       0.065825
     44 H7           2.7180     1.6190    -0.1300 H          0 139       0.326750
     45 H8           7.2590     1.9360     0.2220 H          0 139       0.172750
     46 H9           8.3880    -0.2740     0.3290 H          0 139       0.151500
     47 H10          6.9980    -2.3290     0.2150 H          0 139       0.172750
     48 H11          2.5320    -1.4600    -0.1350 H          0 139       0.326750
     49 H12          1.9790    -3.8020    -1.2670 H          0 139       0.065825
     50 H13          2.7620    -4.3990     0.2180 H          0 139       0.065825
     51 H14          0.9350    -3.9400     1.4940 H          0 139       0.045700
     52 H15          0.6950    -2.3520     0.7260 H          0 139       0.045700
     53 H16         -0.0180    -5.8320     0.6830 H          0 139       0.038367
     54 H17         -0.8130    -5.8730    -0.9090 H          0 139       0.038367
     55 H18          0.9450    -5.6180    -0.7990 H          0 139       0.038367
     56 H19         -1.6100    -4.6010     1.1960 H          0 139       0.045700
     57 H20         -1.3670    -2.8390     1.1080 H          0 139       0.045700
     58 H21         -2.3120    -3.7630    -1.4550 H          0 139       0.065825
     59 H22         -3.3860    -4.4070    -0.1870 H          0 139       0.065825
     60 H23         -2.7240    -1.4950    -0.2620 H          0 139       0.326750
     61 H24         -6.9800     2.4410     0.3660 H          0 139       0.172750
     62 H25         -8.3670     0.3840     0.4710 H          0 139       0.151500
     63 H26         -7.2480    -1.8220     0.2430 H          0 139       0.172750
     64 H27         -2.5360     1.5820    -0.2210 H          0 139       0.326750
     65 H28         -1.8660     3.8730    -1.2550 H          0 139       0.065825
     66 H29         -2.8130     4.5380     0.1000 H          0 139       0.065825
     67 H30         -1.1110     2.7640     1.3810 H          0 139       0.045700
     68 H31         -0.8410     4.5180     1.2410 H          0 139       0.045700
@<TRIPOS>BOND
     1     1     2 1   
     2     1    37 1   
     3     1    38 1   
     4     1    39 1   
     5     2     3 1   
     6     2    36 1   
     7     3     4 1   
     8     3    40 1   
     9     3    41 1   
    10     4     5 1   
    11     4    42 1   
    12     4    43 1   
    13     5     6 1   
    14     5    44 1   
    15     6     7 2   
    16     6     8 1   
    17     8     9 ar  
    18     8    13 ar  
    19     9    10 ar  
    20     9    45 1   
    21    10    11 ar  
    22    10    46 1   
    23    11    12 ar  
    24    11    47 1   
    25    12    13 ar  
    26    12    14 1   
    27    14    15 2   
    28    14    16 1   
    29    16    17 1   
    30    16    48 1   
    31    17    18 1   
    32    17    49 1   
    33    17    50 1   
    34    18    19 1   
    35    18    51 1   
    36    18    52 1   
    37    19    20 1   
    38    19    21 1   
    39    20    53 1   
    40    20    54 1   
    41    20    55 1   
    42    21    22 1   
    43    21    56 1   
    44    21    57 1   
    45    22    23 1   
    46    22    58 1   
    47    22    59 1   
    48    23    24 1   
    49    23    60 1   
    50    24    25 2   
    51    24    26 1   
    52    26    27 ar  
    53    26    31 ar  
    54    27    28 ar  
    55    28    29 ar  
    56    28    32 1   
    57    29    30 ar  
    58    29    61 1   
    59    30    31 ar  
    60    30    62 1   
    61    31    63 1   
    62    32    33 2   
    63    32    34 1   
    64    34    35 1   
    65    34    64 1   
    66    35    36 1   
    67    35    65 1   
    68    35    66 1   
    69    36    67 1   
    70    36    68 1   
@<TRIPOS>SUBSTRUCTURE
     1 139         1 TEMP              0 ****  ****    0 ROOT
