@<TRIPOS>MOLECULE
48
   73    76     1     0     0
SMALL
bcc


@<TRIPOS>ATOM
      1 C1           1.9750     5.9030     4.1840 C          1 48        0.080300
      2 N1           1.6530     5.1030     3.0300 N           1 48       -0.574900
      3 C2           0.6980     4.1090     3.1090 C           1 48        0.677700
      4 O1           0.1240     3.8040     4.1480 O           1 48       -0.613100
      5 C3           0.3480     3.4240     1.8330 C          1 48       -0.190600
      6 C4          -0.9180     2.8380     1.7180 C          1 48       -0.034500
      7 C5          -1.3050     2.1640     0.5450 C          1 48       -0.176300
      8 C6          -2.6430     1.4580     0.5460 C          1 48        0.175200
      9 O2          -3.1160     1.2340    -0.7890 O          1 48       -0.426600
     10 C7          -4.2300     0.3210    -0.8170 C          1 48        0.112900
     11 C8          -3.7610    -1.1150    -1.1430 C          1 48        0.163400
     12 C9          -4.9540    -2.0020    -1.4450 C          1 48       -0.104800
     13 C10         -5.7820    -2.4790    -0.4160 C          1 48       -0.115250
     14 C11         -6.8860    -3.2810    -0.7060 C          1 48       -0.133500
     15 C12         -7.1770    -3.6140    -2.0280 C          1 48       -0.126000
     16 C13         -6.3650    -3.1460    -3.0590 C          1 48       -0.133500
     17 C14         -5.2600    -2.3430    -2.7710 C          1 48       -0.115250
     18 O3          -3.0180    -1.6250    -0.0250 O          1 48       -0.428600
     19 C15         -2.1800    -2.7370    -0.3750 C          1 48        0.120900
     20 C16         -1.2130    -3.0200     0.7730 C          1 48        0.123900
     21 O4          -0.1800    -2.0300     0.7650 O          1 48       -0.434600
     22 C17          0.7570    -2.2230     1.8310 C          1 48        0.123900
     23 C18          1.8710    -1.1870     1.6990 C          1 48        0.120900
     24 O5           2.7600    -1.5780     0.6420 O          1 48       -0.428600
     25 C19          3.5270    -0.4670     0.1450 C          1 48        0.163400
     26 C20          4.8790    -0.9510    -0.3600 C          1 48       -0.104800
     27 C21          5.9350    -0.0350    -0.4970 C          1 48       -0.115250
     28 C22          7.1810    -0.4470    -0.9720 C          1 48       -0.133500
     29 C23          7.3880    -1.7800    -1.3200 C          1 48       -0.126000
     30 C24          6.3490    -2.6990    -1.1970 C          1 48       -0.133500
     31 C25          5.1020    -2.2880    -0.7230 C          1 48       -0.115250
     32 C26          2.7370     0.2460    -0.9710 C          1 48        0.112900
     33 O6           3.0320     1.6540    -0.9540 O          1 48       -0.426600
     34 C27          1.9480     2.4320    -1.4750 C          1 48        0.175200
     35 C28          0.9070     2.6290    -0.3980 C          1 48       -0.176300
     36 C29          1.2620     3.3020     0.7830 C          1 48       -0.034500
     37 C30         -0.3820     2.0890    -0.5100 C          1 48        0.192100
     38 O7          -0.7050     1.4580    -1.6820 O          1 48       -0.502100
     39 H1           1.1800     6.6390     4.3330 H          1 48        0.043700
     40 H2           2.9230     6.4140     4.0000 H          1 48        0.043700
     41 H3           2.0570     5.2720     5.0730 H          1 48        0.043700
     42 H4           1.8980     5.4690     2.1200 H          1 48        0.310500
     43 H5          -1.6060     2.8940     2.5610 H          1 48        0.150000
     44 H6          -3.3870     2.0740     1.0640 H          1 48        0.058700
     45 H7          -2.5240     0.5120     1.0820 H          1 48        0.058700
     46 H8          -4.8960     0.6790    -1.6100 H          1 48        0.064950
     47 H9          -4.7860     0.3670     0.1280 H          1 48        0.064950
     48 H10         -3.0890    -1.0590    -2.0100 H          1 48        0.065700
     49 H11         -5.5620    -2.2310     0.6210 H          1 48        0.143500
     50 H12         -7.5170    -3.6480     0.0990 H          1 48        0.131750
     51 H13         -8.0370    -4.2400    -2.2540 H          1 48        0.131000
     52 H14         -6.5940    -3.4060    -4.0890 H          1 48        0.131750
     53 H15         -4.6400    -1.9860    -3.5900 H          1 48        0.143500
     54 H16         -2.8120    -3.6130    -0.5470 H          1 48        0.050950
     55 H17         -1.6130    -2.5040    -1.2840 H          1 48        0.050950
     56 H18         -1.7380    -2.9880     1.7340 H          1 48        0.044200
     57 H19         -0.7560    -4.0060     0.6320 H          1 48        0.044200
     58 H20          0.2340    -2.0840     2.7830 H          1 48        0.044200
     59 H21          1.1680    -3.2360     1.7760 H          1 48        0.044200
     60 H22          2.4540    -1.1440     2.6250 H          1 48        0.050950
     61 H23          1.4380    -0.2010     1.4970 H          1 48        0.050950
     62 H24          3.7260     0.2220     0.9780 H          1 48        0.065700
     63 H25          5.7840     1.0120    -0.2380 H          1 48        0.143500
     64 H26          7.9880     0.2740    -1.0720 H          1 48        0.131750
     65 H27          8.3580    -2.1010    -1.6900 H          1 48        0.131000
     66 H28          6.5070    -3.7390    -1.4710 H          1 48        0.131750
     67 H29          4.3010    -3.0190    -0.6360 H          1 48        0.143500
     68 H30          1.6650     0.0730    -0.8280 H          1 48        0.064950
     69 H31          2.9900    -0.1440    -1.9640 H          1 48        0.064950
     70 H32          2.3500     3.4140    -1.7520 H          1 48        0.058700
     71 H33          1.5600     1.9810    -2.3940 H          1 48        0.058700
     72 H34          2.2780     3.6770     0.8840 H          1 48        0.150000
     73 H35         -1.6630     1.2570    -1.6340 H          1 48        0.451000
@<TRIPOS>BOND
     1     1     2 1   
     2     1    39 1   
     3     1    40 1   
     4     1    41 1   
     5     2     3 1   
     6     2    42 1   
     7     3     4 2   
     8     3     5 1   
     9     5     6 ar  
    10     5    36 ar  
    11     6     7 ar  
    12     6    43 1   
    13     7     8 1   
    14     7    37 ar  
    15     8     9 1   
    16     8    44 1   
    17     8    45 1   
    18     9    10 1   
    19    10    11 1   
    20    10    46 1   
    21    10    47 1   
    22    11    12 1   
    23    11    18 1   
    24    11    48 1   
    25    12    13 ar  
    26    12    17 ar  
    27    13    14 ar  
    28    13    49 1   
    29    14    15 ar  
    30    14    50 1   
    31    15    16 ar  
    32    15    51 1   
    33    16    17 ar  
    34    16    52 1   
    35    17    53 1   
    36    18    19 1   
    37    19    20 1   
    38    19    54 1   
    39    19    55 1   
    40    20    21 1   
    41    20    56 1   
    42    20    57 1   
    43    21    22 1   
    44    22    23 1   
    45    22    58 1   
    46    22    59 1   
    47    23    24 1   
    48    23    60 1   
    49    23    61 1   
    50    24    25 1   
    51    25    26 1   
    52    25    32 1   
    53    25    62 1   
    54    26    27 ar  
    55    26    31 ar  
    56    27    28 ar  
    57    27    63 1   
    58    28    29 ar  
    59    28    64 1   
    60    29    30 ar  
    61    29    65 1   
    62    30    31 ar  
    63    30    66 1   
    64    31    67 1   
    65    32    33 1   
    66    32    68 1   
    67    32    69 1   
    68    33    34 1   
    69    34    35 1   
    70    34    70 1   
    71    34    71 1   
    72    35    36 ar  
    73    35    37 ar  
    74    36    72 1   
    75    37    38 1   
    76    38    73 1   
@<TRIPOS>SUBSTRUCTURE
     1 48          1 TEMP              0 ****  ****    0 ROOT
