@<TRIPOS>MOLECULE
84
  104   113     1     0     0
SMALL
bcc


@<TRIPOS>ATOM
      1 O           -3.0190    -4.3980     1.3380 O           0 84       -0.588100
      2 C           -2.1200    -3.6230     1.0790 C           0 84        0.636100
      3 C1          -2.3720    -2.1360     1.2550 C          0 84        0.052400
      4 O1          -2.5260    -1.3900     0.0810 O          0 84       -0.328400
      5 C2          -3.7730    -1.5190    -0.4300 C          0 84        0.109100
      6 C3          -4.1010    -2.7800    -0.9580 C          0 84       -0.134000
      7 C4          -5.3270    -3.0440    -1.4810 C          0 84       -0.101000
      8 C5          -6.3000    -2.0220    -1.5360 C          0 84       -0.044500
      9 C6          -7.5990    -2.2790    -1.9950 C          0 84       -0.117000
     10 C7          -8.4590    -1.2280    -2.1310 C          0 84       -0.124500
     11 C8          -8.0800     0.0750    -1.8280 C          0 84       -0.116000
     12 C9          -6.8330     0.3500    -1.3390 C          0 84       -0.124500
     13 C10         -5.9520    -0.7180    -1.1110 C          0 84       -0.025000
     14 C11         -4.7160    -0.4970    -0.4300 C          0 84       -0.046500
     15 C12         -4.6150     0.8030     0.2480 C          0 84       -0.046500
     16 C13         -3.5900     1.7260     0.3190 C          0 84        0.109100
     17 O2          -2.3490     1.5010    -0.1910 O          0 84       -0.328400
     18 C14         -2.1180     2.2490    -1.3640 C          0 84        0.052400
     19 C15         -1.7550     3.6990    -1.1490 C           0 84        0.636100
     20 O3          -2.5410     4.5600    -1.4810 O           0 84       -0.588100
     21 N           -0.5390     4.0050    -0.6130 N           0 84       -0.464100
     22 C16         -0.2170     5.3380    -0.2960 C          0 84        0.117600
     23 C17          1.1180     5.7370    -0.1560 C          0 84       -0.084600
     24 S            2.4090     4.5520    -0.3620 S          0 84       -0.251000
     25 C18          3.8600     5.5690    -0.0090 C          0 84       -0.024600
     26 C19          5.0980     4.7410     0.1630 C          0 84        0.256600
     27 C20          5.7450     3.9480    -0.7200 C          0 84       -0.202600
     28 N1           6.8330     3.4610    -0.0900 N          0 84        0.046400
     29 C21          7.8870     2.6310    -0.6250 C          0 84        0.103100
     30 C22          7.8130     1.1520    -0.5300 C          0 84       -0.107800
     31 C23          7.5450     0.4090    -1.6790 C          0 84       -0.107000
     32 C24          7.5060    -0.9660    -1.6250 C          0 84       -0.107000
     33 C25          7.7300    -1.6280    -0.4300 C          0 84       -0.107800
     34 C26          7.7310    -3.1170    -0.3970 C          0 84        0.103100
     35 N2           6.5570    -3.8040     0.0860 N          0 84        0.046400
     36 C27          5.5110    -4.2640    -0.6340 C          0 84       -0.202600
     37 C28          4.6910    -4.9000     0.2320 C          0 84        0.256600
     38 C29          3.4120    -5.6250    -0.0750 C          0 84       -0.024600
     39 S1           1.9800    -4.6780     0.5020 S          0 84       -0.251000
     40 C30          0.6730    -5.8230     0.2000 C          0 84       -0.084600
     41 C31          0.9550    -7.1390    -0.1230 C          0 84       -0.073000
     42 C32         -0.0730    -8.0380    -0.3600 C          0 84       -0.169000
     43 C33         -1.3860    -7.6230    -0.2780 C          0 84       -0.082500
     44 C34         -1.6790    -6.3090     0.0460 C          0 84       -0.167500
     45 C35         -0.6610    -5.3990     0.2950 C          0 84        0.117600
     46 N3          -0.9370    -4.0770     0.6570 N           0 84       -0.464100
     47 N4           5.2460    -4.7530     1.4450 N          0 84       -0.340500
     48 N5           6.3430    -4.0980     1.3300 N          0 84       -0.163300
     49 C36          7.9600    -0.8960     0.7260 C          0 84       -0.107000
     50 C37          8.0050     0.4850     0.6720 C          0 84       -0.107000
     51 N6           6.8030     3.8920     1.1320 N          0 84       -0.163300
     52 N7           5.7940     4.6560     1.3180 N          0 84       -0.340500
     53 C38          1.4240     7.0590     0.1370 C          0 84       -0.073000
     54 C39          0.4060     7.9830     0.3100 C          0 84       -0.169000
     55 C40         -0.9130     7.5880     0.2060 C          0 84       -0.082500
     56 C41         -1.2190     6.2680    -0.0810 C          0 84       -0.167500
     57 C42         -3.7950     2.9840     0.9180 C          0 84       -0.134000
     58 C43         -4.9890     3.3310     1.4760 C          0 84       -0.101000
     59 C44         -6.0290     2.3780     1.5360 C          0 84       -0.044500
     60 C45         -7.2860     2.7010     2.0730 C          0 84       -0.117000
     61 C46         -8.1990     1.6940     2.2300 C          0 84       -0.124500
     62 C47         -7.9160     0.3780     1.8770 C          0 84       -0.116000
     63 C48         -6.7180     0.0490     1.3020 C          0 84       -0.124500
     64 C49         -5.7970     1.0770     1.0400 C          0 84       -0.025000
     65 H           -3.2730    -2.0150     1.8570 H          0 84        0.094700
     66 H1          -1.5370    -1.7160     1.8200 H          0 84        0.094700
     67 H2          -3.3560    -3.5620    -0.9530 H          0 84        0.152000
     68 H3          -5.5550    -4.0300    -1.8540 H          0 84        0.140500
     69 H4          -7.9090    -3.2860    -2.2350 H          0 84        0.135000
     70 H5          -9.4640    -1.4170    -2.4770 H          0 84        0.136000
     71 H6          -8.7820     0.8810    -1.9810 H          0 84        0.139000
     72 H7          -6.5350     1.3700    -1.1470 H          0 84        0.146500
     73 H8          -1.3060     1.7770    -1.9200 H          0 84        0.094700
     74 H9          -3.0130     2.2130    -1.9840 H          0 84        0.094700
     75 H10          0.1120     3.2940    -0.4470 H          0 84        0.349500
     76 H11          4.0100     6.2700    -0.8300 H          0 84        0.083200
     77 H12          3.6840     6.1320     0.9090 H          0 84        0.083200
     78 H13          5.4450     3.7410    -1.7380 H          0 84        0.199000
     79 H14          7.9930     2.8820    -1.6810 H          0 84        0.072700
     80 H15          8.8150     2.9360    -0.1360 H          0 84        0.072700
     81 H16          7.3650     0.9180    -2.6150 H          0 84        0.145500
     82 H17          7.3010    -1.5310    -2.5240 H          0 84        0.145500
     83 H18          7.9230    -3.4670    -1.4130 H          0 84        0.072700
     84 H19          8.5770    -3.4310     0.2170 H          0 84        0.072700
     85 H20          5.3570    -4.1380    -1.6960 H          0 84        0.199000
     86 H21          3.3340    -5.7750    -1.1510 H          0 84        0.083200
     87 H22          3.4280    -6.5920     0.4290 H          0 84        0.083200
     88 H23          1.9760    -7.4790    -0.1910 H          0 84        0.136000
     89 H24          0.1590    -9.0640    -0.6010 H          0 84        0.136000
     90 H25         -2.1870    -8.3240    -0.4690 H          0 84        0.136500
     91 H26         -2.7130    -5.9990     0.0880 H          0 84        0.174500
     92 H27         -0.2080    -3.4310     0.5970 H          0 84        0.349500
     93 H28          8.1010    -1.4060     1.6690 H          0 84        0.145500
     94 H29          8.1960     1.0510     1.5730 H          0 84        0.145500
     95 H30          2.4510     7.3750     0.2300 H          0 84        0.136000
     96 H31          0.6490     9.0100     0.5260 H          0 84        0.136000
     97 H32         -1.7040     8.3110     0.3460 H          0 84        0.136500
     98 H33         -2.2570     5.9730    -0.1060 H          0 84        0.174500
     99 H34         -2.9810     3.6950     0.9420 H          0 84        0.152000
    100 H35         -5.1400     4.3280     1.8620 H          0 84        0.140500
    101 H36         -7.5260     3.7160     2.3540 H          0 84        0.135000
    102 H37         -9.1720     1.9290     2.6350 H          0 84        0.136000
    103 H38         -8.6500    -0.3930     2.0560 H          0 84        0.139000
    104 H39         -6.4840    -0.9830     1.0820 H          0 84        0.146500
@<TRIPOS>BOND
     1     1     2 2   
     2     2     3 1   
     3     2    46 1   
     4     3     4 1   
     5     3    65 1   
     6     3    66 1   
     7     4     5 1   
     8     5     6 ar  
     9     5    14 ar  
    10     6     7 ar  
    11     6    67 1   
    12     7     8 ar  
    13     7    68 1   
    14     8     9 ar  
    15     8    13 ar  
    16     9    10 ar  
    17     9    69 1   
    18    10    11 ar  
    19    10    70 1   
    20    11    12 ar  
    21    11    71 1   
    22    12    13 ar  
    23    12    72 1   
    24    13    14 ar  
    25    14    15 1   
    26    15    16 ar  
    27    15    64 ar  
    28    16    17 1   
    29    16    57 ar  
    30    17    18 1   
    31    18    19 1   
    32    18    73 1   
    33    18    74 1   
    34    19    20 2   
    35    19    21 1   
    36    21    22 1   
    37    21    75 1   
    38    22    23 ar  
    39    22    56 ar  
    40    23    24 1   
    41    23    53 ar  
    42    24    25 1   
    43    25    26 1   
    44    25    76 1   
    45    25    77 1   
    46    26    27 2   
    47    26    52 1   
    48    27    28 1   
    49    27    78 1   
    50    28    29 1   
    51    28    51 1   
    52    29    30 1   
    53    29    79 1   
    54    29    80 1   
    55    30    31 ar  
    56    30    50 ar  
    57    31    32 ar  
    58    31    81 1   
    59    32    33 ar  
    60    32    82 1   
    61    33    34 1   
    62    33    49 ar  
    63    34    35 1   
    64    34    83 1   
    65    34    84 1   
    66    35    36 1   
    67    35    48 1   
    68    36    37 2   
    69    36    85 1   
    70    37    38 1   
    71    37    47 1   
    72    38    39 1   
    73    38    86 1   
    74    38    87 1   
    75    39    40 1   
    76    40    41 ar  
    77    40    45 ar  
    78    41    42 ar  
    79    41    88 1   
    80    42    43 ar  
    81    42    89 1   
    82    43    44 ar  
    83    43    90 1   
    84    44    45 ar  
    85    44    91 1   
    86    45    46 1   
    87    46    92 1   
    88    47    48 2   
    89    49    50 ar  
    90    49    93 1   
    91    50    94 1   
    92    51    52 2   
    93    53    54 ar  
    94    53    95 1   
    95    54    55 ar  
    96    54    96 1   
    97    55    56 ar  
    98    55    97 1   
    99    56    98 1   
   100    57    58 ar  
   101    57    99 1   
   102    58    59 ar  
   103    58   100 1   
   104    59    60 ar  
   105    59    64 ar  
   106    60    61 ar  
   107    60   101 1   
   108    61    62 ar  
   109    61   102 1   
   110    62    63 ar  
   111    62   103 1   
   112    63    64 ar  
   113    63   104 1   
@<TRIPOS>SUBSTRUCTURE
     1 84          1 TEMP              0 ****  ****    0 ROOT
