@<TRIPOS>MOLECULE
CYC
   88    90     1     0     0
SMALL
bcc


@<TRIPOS>ATOM
      1 N1           2.3200     2.8020     2.0630 N          1 CYC      -0.895800
      2 C1           2.7640     1.8760     0.9830 C          1 CYC       0.131000
      3 C2           1.7710     1.8990    -0.1870 C          1 CYC      -0.022800
      4 S1           0.1280     1.2010     0.2160 S          1 CYC      -0.138100
      5 S2          -0.8970     1.5200    -1.5400 S          1 CYC      -0.149100
      6 C3          -1.5210     3.2300    -1.3580 C          1 CYC      -0.062800
      7 C4          -2.8700     3.3060    -0.6300 C          1 CYC       0.090200
      8 C5          -3.3930     4.7370    -0.7920 C           1 CYC       0.613100
      9 O1          -3.6690     5.2760    -1.8520 O           1 CYC      -0.537500
     10 O2          -3.5030     5.4210     0.3650 O          1 CYC      -0.592600
     11 N2          -2.7710     2.9590     0.7950 N           1 CYC      -0.562400
     12 C6          -3.4000     1.9780     1.5000 C           1 CYC       0.640100
     13 O3          -3.3090     1.9930     2.7300 O           1 CYC      -0.592600
     14 C7          -4.2450     0.9180     0.7700 C          1 CYC       0.045700
     15 C8          -5.6630     1.4820     0.5720 C          1 CYC      -0.044100
     16 C9          -6.4950     0.6250    -0.3530 C          1 CYC      -0.135300
     17 C10         -7.2890    -0.4110     0.1610 C          1 CYC      -0.086250
     18 C11         -8.0320    -1.2280    -0.6930 C          1 CYC      -0.182500
     19 C12         -7.9810    -1.0080    -2.0650 C          1 CYC       0.131100
     20 O4          -8.6900    -1.7790    -2.9360 O          1 CYC      -0.493100
     21 C13         -7.1990     0.0120    -2.5930 C          1 CYC      -0.182500
     22 C14         -6.4550     0.8280    -1.7400 C          1 CYC      -0.086250
     23 N3          -4.2770    -0.2870     1.6130 N           1 CYC      -0.558400
     24 C15         -3.5220    -1.4220     1.4970 C           1 CYC       0.616600
     25 O5          -3.4620    -2.1820     2.4640 O           1 CYC      -0.595600
     26 C16         -2.8620    -1.7520     0.1440 C          1 CYC       0.131000
     27 N4          -3.9110    -2.1610    -0.8180 N          1 CYC      -0.895800
     28 C17         -1.8030    -2.8510     0.3580 C          1 CYC      -0.022800
     29 S3          -0.7300    -3.0770    -1.1110 S          1 CYC      -0.138100
     30 S4           0.4170    -4.6900    -0.5530 S          1 CYC      -0.149100
     31 C18          1.7290    -3.9450     0.4900 C          1 CYC      -0.062800
     32 C19          2.9270    -3.3720    -0.2810 C          1 CYC       0.090200
     33 C20          3.6440    -4.4970    -1.0390 C           1 CYC       0.613100
     34 O6           4.0850    -5.5190    -0.5370 O           1 CYC      -0.537500
     35 O7           3.7850    -4.2710    -2.3600 O          1 CYC      -0.592600
     36 N5           2.5560    -2.2520    -1.1550 N           1 CYC      -0.562400
     37 C21          3.2480    -1.1150    -1.4430 C           1 CYC       0.640100
     38 O8           3.1020    -0.6170    -2.5630 O           1 CYC      -0.592600
     39 C22          4.2380    -0.4750    -0.4480 C          1 CYC       0.045700
     40 C23          5.6110    -1.1540    -0.5610 C          1 CYC      -0.044100
     41 C24          6.7140    -0.3010     0.0230 C          1 CYC      -0.135300
     42 C25          7.0860    -0.4310     1.3690 C          1 CYC      -0.086250
     43 C26          8.0850     0.3810     1.9100 C          1 CYC      -0.182500
     44 C27          8.7120     1.3250     1.1040 C          1 CYC       0.131100
     45 O9           9.6910     2.1390     1.5910 O          1 CYC      -0.493100
     46 C28          8.3560     1.4690    -0.2310 C          1 CYC      -0.182500
     47 C29          7.3570     0.6590    -0.7730 C          1 CYC      -0.086250
     48 N6           3.7180    -0.4770     0.9230 N           1 CYC      -0.558400
     49 C30          3.0080     0.4730     1.5880 C           1 CYC       0.616600
     50 O10          2.6160     0.1800     2.7220 O           1 CYC      -0.595600
     51 H1           1.4560     2.4080     2.4520 H          1 CYC       0.370050
     52 H2           2.9820     2.7090     2.8380 H          1 CYC       0.370050
     53 H3           3.7320     2.2560     0.6350 H          1 CYC       0.092200
     54 H4           2.1700     1.3450    -1.0370 H          1 CYC       0.091450
     55 H5           1.6330     2.9360    -0.5150 H          1 CYC       0.091450
     56 H6          -0.7640     3.8550    -0.8690 H          1 CYC       0.103950
     57 H7          -1.6300     3.6200    -2.3770 H          1 CYC       0.103950
     58 H8          -3.6060     2.6580    -1.1130 H          1 CYC       0.091700
     59 H9          -3.8410     6.3060     0.1060 H          1 CYC       0.453500
     60 H10         -2.3260     3.6460     1.3970 H          1 CYC       0.341500
     61 H11         -3.7800     0.6830    -0.1870 H          1 CYC       0.092200
     62 H12         -5.6270     2.5000     0.1650 H          1 CYC       0.066200
     63 H13         -6.1760     1.5790     1.5380 H          1 CYC       0.066200
     64 H14         -7.3270    -0.5940     1.2340 H          1 CYC       0.137750
     65 H15         -8.6390    -2.0240    -0.2720 H          1 CYC       0.148250
     66 H16         -9.1700    -2.4570    -2.4320 H          1 CYC       0.422500
     67 H17         -7.1680     0.1690    -3.6670 H          1 CYC       0.148250
     68 H18         -5.8490     1.6200    -2.1720 H          1 CYC       0.137750
     69 H19         -4.5420    -0.1260     2.5810 H          1 CYC       0.321000
     70 H20         -2.3600    -0.8540    -0.2230 H          1 CYC       0.092200
     71 H21         -4.6680    -1.4760    -0.8150 H          1 CYC       0.370050
     72 H22         -4.3350    -3.0300    -0.4930 H          1 CYC       0.370050
     73 H23         -2.2890    -3.8050     0.5950 H          1 CYC       0.091450
     74 H24         -1.1580    -2.5830     1.2020 H          1 CYC       0.091450
     75 H25          1.2840    -3.1760     1.1310 H          1 CYC       0.103950
     76 H26          2.0770    -4.7430     1.1550 H          1 CYC       0.103950
     77 H27          3.6610    -3.0190     0.4420 H          1 CYC       0.091700
     78 H28          4.2200    -5.0750    -2.7130 H          1 CYC       0.453500
     79 H29          1.9810    -2.5290    -1.9480 H          1 CYC       0.341500
     80 H30          4.3330     0.5720    -0.7570 H          1 CYC       0.092200
     81 H31          5.8470    -1.3610    -1.6130 H          1 CYC       0.066200
     82 H32          5.6190    -2.1310    -0.0640 H          1 CYC       0.066200
     83 H33          6.5990    -1.1630     2.0090 H          1 CYC       0.137750
     84 H34          8.3570     0.2640     2.9540 H          1 CYC       0.148250
     85 H35          9.8360     1.9250     2.5270 H          1 CYC       0.422500
     86 H36          8.8550     2.2110    -0.8490 H          1 CYC       0.148250
     87 H37          7.0870     0.7840    -1.8190 H          1 CYC       0.137750
     88 H38          3.8070    -1.3160     1.4790 H          1 CYC       0.321000
@<TRIPOS>BOND
     1     1     2 1   
     2     1    51 1   
     3     1    52 1   
     4     2     3 1   
     5     2    49 1   
     6     2    53 1   
     7     3     4 1   
     8     3    54 1   
     9     3    55 1   
    10     4     5 1   
    11     5     6 1   
    12     6     7 1   
    13     6    56 1   
    14     6    57 1   
    15     7     8 1   
    16     7    11 1   
    17     7    58 1   
    18     8     9 2   
    19     8    10 1   
    20    10    59 1   
    21    11    12 1   
    22    11    60 1   
    23    12    13 2   
    24    12    14 1   
    25    14    15 1   
    26    14    23 1   
    27    14    61 1   
    28    15    16 1   
    29    15    62 1   
    30    15    63 1   
    31    16    17 ar  
    32    16    22 ar  
    33    17    18 ar  
    34    17    64 1   
    35    18    19 ar  
    36    18    65 1   
    37    19    20 1   
    38    19    21 ar  
    39    20    66 1   
    40    21    22 ar  
    41    21    67 1   
    42    22    68 1   
    43    23    24 1   
    44    23    69 1   
    45    24    25 2   
    46    24    26 1   
    47    26    27 1   
    48    26    28 1   
    49    26    70 1   
    50    27    71 1   
    51    27    72 1   
    52    28    29 1   
    53    28    73 1   
    54    28    74 1   
    55    29    30 1   
    56    30    31 1   
    57    31    32 1   
    58    31    75 1   
    59    31    76 1   
    60    32    33 1   
    61    32    36 1   
    62    32    77 1   
    63    33    34 2   
    64    33    35 1   
    65    35    78 1   
    66    36    37 1   
    67    36    79 1   
    68    37    38 2   
    69    37    39 1   
    70    39    40 1   
    71    39    48 1   
    72    39    80 1   
    73    40    41 1   
    74    40    81 1   
    75    40    82 1   
    76    41    42 ar  
    77    41    47 ar  
    78    42    43 ar  
    79    42    83 1   
    80    43    44 ar  
    81    43    84 1   
    82    44    45 1   
    83    44    46 ar  
    84    45    85 1   
    85    46    47 ar  
    86    46    86 1   
    87    47    87 1   
    88    48    49 1   
    89    48    88 1   
    90    49    50 2   
@<TRIPOS>SUBSTRUCTURE
     1 CYC         1 TEMP              0 ****  ****    0 ROOT
