@<TRIPOS>MOLECULE
M
  132   137     1     0     0
SMALL
bcc


@<TRIPOS>ATOM
      1 O1           2.6420    -1.3520     5.1070 O           1 M        -0.578000
      2 C1           1.4600    -1.1380     4.8970 C           1 M         0.665700
      3 O2           0.9740     0.1130     4.7990 O          1 M        -0.604100
      4 C2           0.4120    -2.1630     4.6570 C          1 M        -0.167600
      5 C3          -0.9370    -1.8120     4.5100 C          1 M         0.020000
      6 C4          -1.8840    -2.7980     4.2330 C          1 M        -0.091100
      7 C5          -1.4830    -4.1300     4.0990 C          1 M         0.020000
      8 C6          -0.1380    -4.4900     4.2160 C          1 M        -0.079100
      9 C7           0.8030    -3.5040     4.5340 C          1 M         0.032000
     10 S1           0.3860    -6.1860     3.9950 S          1 M        -0.063900
     11 S2          -0.6270    -6.8070     2.3080 S          1 M        -0.186100
     12 C8           0.6230    -6.7970     0.9600 C          1 M        -0.035300
     13 C9           1.0540    -5.4320     0.4090 C          1 M         0.068700
     14 C10          2.0980    -4.8050     1.3390 C           1 M         0.597100
     15 O3           3.1300    -5.3440     1.7080 O           1 M        -0.534000
     16 O4           1.8180    -3.5390     1.6960 O          1 M        -0.608100
     17 N1          -0.0970    -4.5740     0.0520 N           1 M        -0.546900
     18 C11         -0.1410    -3.5740    -0.8880 C           1 M         0.685700
     19 O5          -1.1530    -2.9250    -1.1230 O           1 M        -0.617100
     20 C12          1.1030    -3.2040    -1.5760 C          1 M        -0.125600
     21 C13          1.9340    -2.2870    -0.9410 C          1 M        -0.061000
     22 C14          3.1920    -1.9910    -1.4720 C          1 M        -0.142600
     23 C15          3.6050    -2.6000    -2.6630 C          1 M        -0.075000
     24 C16          2.7300    -3.4510    -3.3500 C          1 M        -0.109000
     25 C17          1.4700    -3.7370    -2.8070 C          1 M        -0.086600
     26 C18          0.5610    -4.6290    -3.5260 C           1 M         0.666700
     27 O6           0.6250    -5.8330    -3.3110 O           1 M        -0.576100
     28 N2          -0.2960    -4.0900    -4.4490 N           1 M        -0.538900
     29 C19         -0.7520    -2.6870    -4.5360 C          1 M         0.064700
     30 C20         -2.2110    -2.6250    -4.0850 C           1 M         0.610100
     31 O7          -3.0150    -3.5430    -4.1190 O           1 M        -0.534000
     32 O8          -2.5530    -1.3860    -3.6770 O          1 M        -0.607100
     33 C21         -0.6840    -2.1420    -5.9630 C          1 M        -0.048300
     34 S3           0.9930    -1.5780    -6.4510 S          1 M        -0.122100
     35 S4           1.0740     0.3510    -5.7230 S          1 M        -0.166100
     36 C22          2.0720     0.1770    -4.1960 C          1 M        -0.041300
     37 C23          2.1910     1.4740    -3.3810 C          1 M         0.070700
     38 C24          2.8790     2.5850    -4.1670 C           1 M         0.606100
     39 O9           2.4080     3.6840    -4.4210 O           1 M        -0.547000
     40 O10          4.1270     2.2650    -4.5580 O          1 M        -0.596100
     41 N3           0.8840     1.9390    -2.9060 N           1 M        -0.548900
     42 C25          0.2720     1.3850    -1.8090 C           1 M         0.696700
     43 O11          0.8230     0.6120    -1.0340 O           1 M        -0.613100
     44 C26         -1.1530     1.7570    -1.6310 C          1 M        -0.151600
     45 C27         -1.5730     3.0770    -1.8260 C          1 M        -0.054000
     46 C28         -2.9270     3.3850    -1.7050 C          1 M        -0.133600
     47 C29         -3.8720     2.3870    -1.4510 C          1 M        -0.043000
     48 C30         -3.4430     1.0740    -1.2440 C          1 M        -0.158600
     49 C31         -2.0810     0.7550    -1.3250 C          1 M        -0.025000
     50 C32         -4.4290    -0.0230    -1.1640 C           1 M         0.674700
     51 O12         -4.5210    -0.7950    -2.1160 O           1 M        -0.581100
     52 N4          -5.2650    -0.1670    -0.0800 N           1 M        -0.555900
     53 C33         -5.0090     0.2560     1.3190 C          1 M         0.020700
     54 C34         -5.2730     1.7470     1.5020 C           1 M         0.619100
     55 O13         -4.7950     2.4470     2.3780 O           1 M        -0.481000
     56 O14         -6.1960     2.2180     0.6230 O          1 M        -0.567100
     57 C35         -3.6680    -0.1910     1.9110 C          1 M        -0.048300
     58 S5          -3.6270    -2.0200     1.9780 S          1 M        -0.209100
     59 S6          -3.6040    -2.3930     3.9990 S          1 M        -0.050900
     60 C36         -3.3750     4.7540    -2.0060 C           1 M         0.677700
     61 O15         -3.2670     5.1720    -3.1520 O           1 M        -0.577100
     62 N5          -3.9030     5.5220    -1.0090 N           1 M        -0.568900
     63 C37         -3.8430     5.3300     0.4560 C          1 M         0.081700
     64 C38         -4.9860     6.1170     1.1150 C           1 M         0.621100
     65 O16         -5.2620     6.1590     2.3030 O           1 M        -0.501000
     66 O17         -5.7010     6.8680     0.2440 O          1 M        -0.618100
     67 C39         -2.5000     5.8430     0.9990 C          1 M        -0.053300
     68 S7          -2.0360     5.1170     2.6120 S          1 M        -0.150100
     69 S8          -1.3390     3.2540     2.0930 S          1 M        -0.065900
     70 C40          0.4190     3.5300     2.0380 C          1 M        -0.041100
     71 C41          1.0380     3.9980     0.8800 C          1 M        -0.055000
     72 C42          2.4250     4.1580     0.8350 C          1 M        -0.135000
     73 C43          3.2240     3.8460     1.9460 C          1 M         0.028900
     74 S9           5.0010     3.9760     1.7610 S          1 M        -0.035900
     75 S10          5.4270     2.6300     0.2520 S          1 M        -0.159100
     76 C44          5.5120     1.0270     1.1450 C          1 M        -0.036300
     77 C45          4.1290     0.3820     1.2720 C          1 M         0.071700
     78 C46          4.0820    -0.6970     2.3640 C           1 M         0.611100
     79 O18          3.6380    -1.8340     2.2580 O           1 M        -0.573000
     80 O19          4.4430    -0.2230     3.5760 O          1 M        -0.599100
     81 N6           3.5290    -0.1250     0.0340 N           1 M        -0.540900
     82 C47          4.1210    -1.1280    -0.7020 C           1 M         0.668700
     83 O20          5.3190    -1.3720    -0.7030 O           1 M        -0.563100
     84 C48          2.5940     3.4090     3.1270 C          1 M        -0.103600
     85 C49          3.3620     3.1050     4.3570 C           1 M         0.656700
     86 O21          4.3220     3.7050     4.7950 O           1 M        -0.510000
     87 O22          2.8870     2.0100     4.9960 O          1 M        -0.625100
     88 C50          1.1980     3.2490     3.1630 C          1 M        -0.031000
     89 H1           1.7380     0.7280     4.9190 H          1 M         0.467000
     90 H2          -1.2480    -0.7740     4.6010 H          1 M         0.175000
     91 H3          -2.2330    -4.8910     3.8880 H          1 M         0.169000
     92 H4           1.8530    -3.7730     4.6450 H          1 M         0.176000
     93 H5           1.4840    -7.3940     1.2820 H          1 M         0.116700
     94 H6           0.1530    -7.3550     0.1410 H          1 M         0.116700
     95 H7           1.6000    -5.6130    -0.5250 H          1 M         0.122700
     96 H8           2.6490    -3.1650     2.0930 H          1 M         0.474000
     97 H9          -0.9460    -4.6770     0.5960 H          1 M         0.344500
     98 H10          1.6040    -1.8510    -0.0010 H          1 M         0.176000
     99 H11          4.6010    -2.4070    -3.0580 H          1 M         0.166000
    100 H12          3.0370    -3.9050    -4.2900 H          1 M         0.165000
    101 H13         -0.9560    -4.7810    -4.7960 H          1 M         0.333500
    102 H14         -0.1830    -2.0680    -3.8380 H          1 M         0.108700
    103 H15         -3.4560    -1.4580    -3.2670 H          1 M         0.479000
    104 H16         -0.9750    -2.9240    -6.6740 H          1 M         0.108700
    105 H17         -1.3790    -1.3100    -6.1210 H          1 M         0.108700
    106 H18          3.0670    -0.1780    -4.4830 H          1 M         0.104200
    107 H19          1.5900    -0.5830    -3.5800 H          1 M         0.104200
    108 H20          2.8070     1.2860    -2.4950 H          1 M         0.120700
    109 H21          4.4570     3.0630    -5.0250 H          1 M         0.455000
    110 H22          0.3420     2.4820    -3.5730 H          1 M         0.337500
    111 H23         -0.8650     3.8600    -2.0880 H          1 M         0.162000
    112 H24         -4.9290     2.6350    -1.4890 H          1 M         0.163000
    113 H25         -1.7530    -0.2790    -1.2190 H          1 M         0.192000
    114 H26         -5.7480    -1.0610    -0.1580 H          1 M         0.326500
    115 H27         -5.8170    -0.2150     1.8970 H          1 M         0.103700
    116 H28         -6.5030     1.4900     0.0360 H          1 M         0.439000
    117 H29         -2.8230     0.1440     1.3080 H          1 M         0.105700
    118 H30         -3.5240     0.2280     2.9120 H          1 M         0.105700
    119 H31         -4.2670     6.4190    -1.3230 H          1 M         0.336500
    120 H32         -3.9970     4.2690     0.6510 H          1 M         0.126700
    121 H33         -6.3860     7.2860     0.8090 H          1 M         0.450000
    122 H34         -2.5400     6.9300     1.1360 H          1 M         0.095700
    123 H35         -1.6840     5.6560     0.2930 H          1 M         0.095700
    124 H36          0.4560     4.2430    -0.0020 H          1 M         0.146000
    125 H37          2.8800     4.5160    -0.0880 H          1 M         0.163000
    126 H38          5.9720     1.2020     2.1230 H          1 M         0.125200
    127 H39          6.2100     0.3880     0.6000 H          1 M         0.125200
    128 H40          3.4040     1.1240     1.6190 H          1 M         0.096700
    129 H41          4.1350    -0.9120     4.2210 H          1 M         0.475000
    130 H42          2.5330     0.0550    -0.0990 H          1 M         0.331500
    131 H43          3.5380     1.9330     5.7350 H          1 M         0.452000
    132 H44          0.7120     2.9120     4.0780 H          1 M         0.167000
@<TRIPOS>BOND
     1     1     2 2   
     2     2     3 1   
     3     2     4 1   
     4     3    89 1   
     5     4     5 ar  
     6     4     9 ar  
     7     5     6 ar  
     8     5    90 1   
     9     6     7 ar  
    10     6    59 1   
    11     7     8 ar  
    12     7    91 1   
    13     8     9 ar  
    14     8    10 1   
    15     9    92 1   
    16    10    11 1   
    17    11    12 1   
    18    12    13 1   
    19    12    93 1   
    20    12    94 1   
    21    13    14 1   
    22    13    17 1   
    23    13    95 1   
    24    14    15 2   
    25    14    16 1   
    26    16    96 1   
    27    17    18 1   
    28    17    97 1   
    29    18    19 2   
    30    18    20 1   
    31    20    21 ar  
    32    20    25 ar  
    33    21    22 ar  
    34    21    98 1   
    35    22    23 ar  
    36    22    82 1   
    37    23    24 ar  
    38    23    99 1   
    39    24    25 ar  
    40    24   100 1   
    41    25    26 1   
    42    26    27 2   
    43    26    28 1   
    44    28    29 1   
    45    28   101 1   
    46    29    30 1   
    47    29    33 1   
    48    29   102 1   
    49    30    31 2   
    50    30    32 1   
    51    32   103 1   
    52    33    34 1   
    53    33   104 1   
    54    33   105 1   
    55    34    35 1   
    56    35    36 1   
    57    36    37 1   
    58    36   106 1   
    59    36   107 1   
    60    37    38 1   
    61    37    41 1   
    62    37   108 1   
    63    38    39 2   
    64    38    40 1   
    65    40   109 1   
    66    41    42 1   
    67    41   110 1   
    68    42    43 2   
    69    42    44 1   
    70    44    45 ar  
    71    44    49 ar  
    72    45    46 ar  
    73    45   111 1   
    74    46    47 ar  
    75    46    60 1   
    76    47    48 ar  
    77    47   112 1   
    78    48    49 ar  
    79    48    50 1   
    80    49   113 1   
    81    50    51 2   
    82    50    52 1   
    83    52    53 1   
    84    52   114 1   
    85    53    54 1   
    86    53    57 1   
    87    53   115 1   
    88    54    55 2   
    89    54    56 1   
    90    56   116 1   
    91    57    58 1   
    92    57   117 1   
    93    57   118 1   
    94    58    59 1   
    95    60    61 2   
    96    60    62 1   
    97    62    63 1   
    98    62   119 1   
    99    63    64 1   
   100    63    67 1   
   101    63   120 1   
   102    64    65 2   
   103    64    66 1   
   104    66   121 1   
   105    67    68 1   
   106    67   122 1   
   107    67   123 1   
   108    68    69 1   
   109    69    70 1   
   110    70    71 ar  
   111    70    88 ar  
   112    71    72 ar  
   113    71   124 1   
   114    72    73 ar  
   115    72   125 1   
   116    73    74 1   
   117    73    84 ar  
   118    74    75 1   
   119    75    76 1   
   120    76    77 1   
   121    76   126 1   
   122    76   127 1   
   123    77    78 1   
   124    77    81 1   
   125    77   128 1   
   126    78    79 2   
   127    78    80 1   
   128    80   129 1   
   129    81    82 1   
   130    81   130 1   
   131    82    83 2   
   132    84    85 1   
   133    84    88 ar  
   134    85    86 2   
   135    85    87 1   
   136    87   131 1   
   137    88   132 1   
@<TRIPOS>SUBSTRUCTURE
     1 M           1 TEMP              0 ****  ****    0 ROOT
