@<TRIPOS>MOLECULE
153
   70    75     1     0     0
SMALL
bcc


@<TRIPOS>ATOM
      1 C            4.2120    -2.2950    -2.5380 C          0 153      -0.034800
      2 C1           4.1200    -1.8240    -1.1090 C          0 153      -0.049600
      3 C2           4.0420    -0.5070    -0.7220 C          0 153      -0.092600
      4 S            3.9250     1.1280    -1.4160 S          0 153      -0.073300
      5 C3           3.2630     2.0920    -0.0350 C          0 153       0.056800
      6 C4           2.3620     3.0290    -0.0310 C          0 153       0.056800
      7 S1           1.4190     3.7450    -1.4050 S          0 153      -0.073300
      8 C5          -0.2080     3.9240    -0.7090 C          0 153      -0.092600
      9 C6          -1.5260     4.0630    -1.0900 C          0 153      -0.049600
     10 C7          -2.0010     4.1970    -2.5140 C          0 153      -0.034800
     11 N           -2.3570     4.0630     0.0320 N          0 153      -0.057100
     12 C8          -3.8010     3.9500     0.0640 C          0 153       0.004300
     13 C9          -4.2000     2.5900     0.6510 C          0 153       0.110400
     14 O           -4.6490     1.7070    -0.3770 O          0 153      -0.422600
     15 C10         -5.0430     0.4880     0.2610 C          0 153       0.090400
     16 C11         -5.4930    -0.5310    -0.7870 C          0 153       0.123400
     17 O1          -6.0590    -1.6750    -0.1430 O          0 153      -0.329900
     18 C12         -5.0770    -2.6120    -0.0600 C          0 153       0.085100
     19 C13         -4.5730    -2.9800     1.1800 C          0 153      -0.145000
     20 C14         -3.5500    -3.9040     1.2580 C          0 153      -0.145000
     21 C15         -3.0270    -4.4650     0.1030 C          0 153       0.085100
     22 O2          -1.9860    -5.3390     0.1860 O          0 153      -0.329900
     23 C16         -0.8490    -4.6020     0.6420 C          0 153       0.123400
     24 C17          0.3850    -4.9600    -0.1870 C          0 153       0.090400
     25 O3           1.5630    -4.3890     0.3930 O          0 153      -0.422600
     26 C18          2.6010    -4.4990    -0.5810 C          0 153       0.110400
     27 C19          3.9610    -4.1070     0.0100 C          0 153       0.004300
     28 N1           4.0970    -2.6650     0.0050 N          0 153      -0.057100
     29 C20          4.1450    -1.8040     1.1030 C          0 153      -0.049600
     30 C21          4.2720    -2.2460     2.5380 C          0 153      -0.034800
     31 C22          4.0740    -0.4930     0.6880 C          0 153      -0.092600
     32 S2           3.9750     1.1640     1.3400 S          0 153      -0.073300
     33 C23         -3.5610    -4.1320    -1.1330 C          0 153      -0.145000
     34 C24         -4.5870    -3.2090    -1.2110 C          0 153      -0.145000
     35 C25         -1.4870     4.0720     1.1250 C          0 153      -0.049600
     36 C26         -1.9140     4.2050     2.5650 C          0 153      -0.034800
     37 C27         -0.1850     3.9420     0.7010 C          0 153      -0.092600
     38 S3           1.4640     3.7660     1.3560 S          0 153      -0.073300
     39 H            5.2590    -2.3620    -2.8320 H          0 153       0.054533
     40 H1           3.7450    -3.2760    -2.6280 H          0 153       0.054533
     41 H2           3.6970    -1.5860    -3.1870 H          0 153       0.054533
     42 H3          -2.2040     3.2080    -2.9240 H          0 153       0.054533
     43 H4          -2.9130     4.7940    -2.5380 H          0 153       0.054533
     44 H5          -1.2300     4.6860    -3.1100 H          0 153       0.054533
     45 H6          -4.2130     4.7470     0.6830 H          0 153       0.070200
     46 H7          -4.1940     4.0380    -0.9480 H          0 153       0.070200
     47 H8          -3.3390     2.1490     1.1520 H          0 153       0.057200
     48 H9          -5.0020     2.7330     1.3760 H          0 153       0.057200
     49 H10         -4.1990     0.0830     0.8200 H          0 153       0.052700
     50 H11         -5.8650     0.6890     0.9470 H          0 153       0.052700
     51 H12         -6.2400    -0.0750    -1.4370 H          0 153       0.071700
     52 H13         -4.6350    -0.8390    -1.3840 H          0 153       0.071700
     53 H14         -4.9800    -2.5450     2.0810 H          0 153       0.148500
     54 H15         -3.1560    -4.1900     2.2220 H          0 153       0.148500
     55 H16         -1.0490    -3.5350     0.5480 H          0 153       0.071700
     56 H17         -0.6610    -4.8400     1.6890 H          0 153       0.071700
     57 H18          0.4920    -6.0440    -0.2230 H          0 153       0.052700
     58 H19          0.2610    -4.5770    -1.2000 H          0 153       0.052700
     59 H20          2.6490    -5.5280    -0.9370 H          0 153       0.057200
     60 H21          2.3740    -3.8420    -1.4210 H          0 153       0.057200
     61 H22          4.0300    -4.4740     1.0340 H          0 153       0.070200
     62 H23          4.7570    -4.5520    -0.5870 H          0 153       0.070200
     63 H24          5.3260    -2.3110     2.8070 H          0 153       0.054533
     64 H25          3.7750    -1.5240     3.1860 H          0 153       0.054533
     65 H26          3.8050    -3.2240     2.6600 H          0 153       0.054533
     66 H27         -3.1770    -4.5930    -2.0310 H          0 153       0.148500
     67 H28         -5.0080    -2.9520    -2.1720 H          0 153       0.148500
     68 H29         -2.0950     3.2150     2.9820 H          0 153       0.054533
     69 H30         -1.1270     4.7010     3.1330 H          0 153       0.054533
     70 H31         -2.8290     4.7950     2.6190 H          0 153       0.054533
@<TRIPOS>BOND
     1     1     2 1   
     2     1    39 1   
     3     1    40 1   
     4     1    41 1   
     5     2     3 2   
     6     2    28 1   
     7     3     4 1   
     8     3    31 1   
     9     4     5 1   
    10     5     6 2   
    11     5    32 1   
    12     6     7 1   
    13     6    38 1   
    14     7     8 1   
    15     8     9 2   
    16     8    37 1   
    17     9    10 1   
    18     9    11 1   
    19    10    42 1   
    20    10    43 1   
    21    10    44 1   
    22    11    12 1   
    23    11    35 1   
    24    12    13 1   
    25    12    45 1   
    26    12    46 1   
    27    13    14 1   
    28    13    47 1   
    29    13    48 1   
    30    14    15 1   
    31    15    16 1   
    32    15    49 1   
    33    15    50 1   
    34    16    17 1   
    35    16    51 1   
    36    16    52 1   
    37    17    18 1   
    38    18    19 ar  
    39    18    34 ar  
    40    19    20 ar  
    41    19    53 1   
    42    20    21 ar  
    43    20    54 1   
    44    21    22 1   
    45    21    33 ar  
    46    22    23 1   
    47    23    24 1   
    48    23    55 1   
    49    23    56 1   
    50    24    25 1   
    51    24    57 1   
    52    24    58 1   
    53    25    26 1   
    54    26    27 1   
    55    26    59 1   
    56    26    60 1   
    57    27    28 1   
    58    27    61 1   
    59    27    62 1   
    60    28    29 1   
    61    29    30 1   
    62    29    31 2   
    63    30    63 1   
    64    30    64 1   
    65    30    65 1   
    66    31    32 1   
    67    33    34 ar  
    68    33    66 1   
    69    34    67 1   
    70    35    36 1   
    71    35    37 2   
    72    36    68 1   
    73    36    69 1   
    74    36    70 1   
    75    37    38 1   
@<TRIPOS>SUBSTRUCTURE
     1 153         1 TEMP              0 ****  ****    0 ROOT
