@<TRIPOS>MOLECULE
DAV
  472   484     1     0     0
SMALL
bcc


@<TRIPOS>ATOM
      1 H          -13.0140    -1.1500    -1.1570 H          0 DAV       0.306500
      2 N          -13.2190    -0.4350    -0.5020 N           0 DAV      -0.553900
      3 C          -12.1720     0.1460     0.1860 C           0 DAV       0.662700
      4 O          -12.3700     1.0120     1.0640 O           0 DAV      -0.592100
      5 C1         -10.6880    -0.2020    -0.0400 C          0 DAV      -0.128600
      6 C2          -9.9670     0.0720    -1.2160 C          0 DAV      -0.015500
      7 H1         -10.4860     0.4460    -2.1150 H          0 DAV       0.178000
      8 C3          -8.5690    -0.1160    -1.2600 C          0 DAV      -0.154100
      9 C4          -7.9100    -0.6350    -0.1430 C          0 DAV      -0.094000
     10 H2          -6.8620    -0.9480    -0.2440 H          0 DAV       0.135000
     11 C5          -8.5720    -0.8090     1.0690 C          0 DAV      -0.154100
     12 C6          -9.9680    -0.6060     1.1050 C          0 DAV      -0.015500
     13 H3         -10.5060    -0.7510     2.0610 H          0 DAV       0.178000
     14 C7          -7.8260    -1.1910     2.3070 C           0 DAV       0.678200
     15 O1          -8.4530    -1.6240     3.2990 O           0 DAV      -0.600100
     16 N1          -6.4490    -1.0560     2.5090 N           0 DAV      -0.586400
     17 H4          -6.1520    -1.3390     3.4190 H          0 DAV       0.309000
     18 C8          -5.3900    -0.8230     1.5670 C          0 DAV       0.151300
     19 H5          -5.4140    -1.6340     0.7740 H          0 DAV       0.045700
     20 H6          -5.5740     0.1720     1.0600 H          0 DAV       0.045700
     21 C9          -3.9640    -0.8050     2.0870 C          0 DAV      -0.104800
     22 C10         -3.1710    -1.9540     1.9720 C          0 DAV      -0.103500
     23 H7          -3.6310    -2.9050     1.6590 H          0 DAV       0.136000
     24 C11         -1.7890    -1.9160     2.2110 C          0 DAV      -0.035000
     25 C12         -0.9560    -3.0790     2.0500 C          0 DAV      -0.117750
     26 H8          -1.4430    -4.0190     1.7450 H          0 DAV       0.134750
     27 C13          0.3850    -3.0270     2.2510 C          0 DAV      -0.113750
     28 H9           1.0040    -3.9280     2.1050 H          0 DAV       0.151750
     29 C14          1.0530    -1.8110     2.6440 C          0 DAV      -0.009750
     30 C15          0.2610    -0.6380     2.8070 C          0 DAV      -0.024500
     31 C16         -1.1640    -0.7000     2.5930 C          0 DAV      -0.010000
     32 C17         -1.9770     0.4530     2.7530 C          0 DAV      -0.035000
     33 C18         -1.3300     1.6790     3.1430 C          0 DAV      -0.117750
     34 H10         -1.9600     2.5750     3.2550 H          0 DAV       0.134750
     35 C19          0.0090     1.7410     3.3540 C          0 DAV      -0.113750
     36 H11          0.4820     2.6970     3.6350 H          0 DAV       0.151750
     37 C20          0.8640     0.5890     3.2090 C          0 DAV      -0.009750
     38 C21          2.2490     0.6320     3.4690 C          0 DAV      -0.087300
     39 C22          3.0060    -0.5330     3.2790 C          0 DAV      -0.113500
     40 H12          4.0910    -0.4930     3.4770 H          0 DAV       0.137500
     41 C23          2.4390    -1.7560     2.8940 C          0 DAV      -0.087300
     42 C24          3.3030    -3.0050     2.9430 C          0 DAV       0.141300
     43 H13          4.1990    -2.7690     3.5940 H          0 DAV       0.056325
     44 H14          2.7220    -3.8200     3.4680 H          0 DAV       0.056325
     45 N2           3.7690    -3.5370     1.6880 N           0 DAV      -0.584900
     46 H15          4.0520    -2.8740     1.0070 H          0 DAV       0.304000
     47 C25          4.1560    -4.8740     1.5240 C           0 DAV       0.677950
     48 O2           4.0540    -5.6660     2.4800 O           0 DAV      -0.586100
     49 C26          4.6220    -5.3080     0.1640 C          0 DAV      -0.160100
     50 C27          4.1930    -4.5600    -0.9330 C          0 DAV      -0.100000
     51 H16          3.4410    -3.7680    -0.7810 H          0 DAV       0.137000
     52 C28          4.6400    -4.8440    -2.2240 C          0 DAV      -0.160100
     53 C29          5.4180    -6.0050    -2.4470 C          0 DAV      -0.014250
     54 H17          5.7180    -6.2540    -3.4790 H          0 DAV       0.178500
     55 C30          5.7710    -6.8480    -1.3800 C          0 DAV      -0.125100
     56 C31          5.3970    -6.4560    -0.0680 C          0 DAV      -0.014250
     57 H18          5.6860    -7.0990     0.7860 H          0 DAV       0.178500
     58 C32          6.3660    -8.2700    -1.4680 C           0 DAV       0.665700
     59 O3           5.8810    -9.0730    -0.6390 O           0 DAV      -0.590600
     60 N3           7.3270    -8.6790    -2.3690 N           0 DAV      -0.554400
     61 H19          7.7310    -8.0020    -2.9710 H          0 DAV       0.307000
     62 C33          8.0360   -10.0140    -2.3660 C          0 DAV       0.159400
     63 C34          8.6800   -10.2280    -0.9420 C          0 DAV      -0.091567
     64 H20          8.9710    -9.2210    -0.5330 H          0 DAV       0.068033
     65 H21          7.8610   -10.6230    -0.2830 H          0 DAV       0.068033
     66 C35          9.9070   -11.1210    -0.7670 C          0 DAV      -0.146233
     67 H22          9.6410   -12.1820    -1.0040 H          0 DAV       0.055117
     68 H23         10.7220   -10.7960    -1.4670 H          0 DAV       0.055117
     69 C36         10.5360   -11.0340     0.6520 C           0 DAV       0.656100
     70 O4          10.3040   -10.0280     1.3560 O           0 DAV      -0.633656
     71 N4          11.3590   -12.0660     1.0540 N           0 DAV      -0.553789
     72 H24         11.4860   -12.8040     0.4020 H          0 DAV       0.293056
     73 C37         12.2230   -12.1750     2.2570 C          0 DAV       0.135178
     74 C38         12.9050   -13.5820     2.2470 C          0 DAV      -0.073733
     75 H25         12.1130   -14.3770     2.2470 H          0 DAV       0.050552
     76 H26         13.4800   -13.7170     1.2930 H          0 DAV       0.050552
     77 C39         13.8440   -13.8320     3.4100 C          0 DAV      -0.174919
     78 H27         14.6330   -13.0340     3.4300 H          0 DAV       0.039256
     79 H28         13.2720   -13.7670     4.3730 H          0 DAV       0.039256
     80 C40         14.5770   -15.1750     3.3990 C           0 DAV       0.907415
     81 O5          14.5330   -15.9650     2.4080 O           0 DAV      -0.897467
     82 O6          15.2700   -15.4920     4.4280 O           0 DAV      -0.897467
     83 C41         13.3150   -11.0570     2.2880 C          0 DAV      -0.073733
     84 H29         12.8000   -10.0720     2.1270 H          0 DAV       0.050552
     85 H30         13.7360   -11.0320     3.3310 H          0 DAV       0.050552
     86 C42         14.4890   -11.1640     1.3410 C          0 DAV      -0.174919
     87 H31         14.7710   -12.2330     1.1690 H          0 DAV       0.039256
     88 H32         14.2230   -10.7250     0.3460 H          0 DAV       0.039256
     89 C43         15.7630   -10.4610     1.8330 C           0 DAV       0.907415
     90 O7          15.7780    -9.7660     2.8940 O           0 DAV      -0.897467
     91 O8          16.8260   -10.6040     1.1430 O           0 DAV      -0.897467
     92 C44         11.4250   -11.9820     3.5850 C          0 DAV      -0.073733
     93 H33         12.1800   -11.7970     4.3970 H          0 DAV       0.050552
     94 H34         10.8160   -11.0440     3.4880 H          0 DAV       0.050552
     95 C45         10.5300   -13.1010     4.0690 C          0 DAV      -0.174919
     96 H35          9.5400   -13.0580     3.5470 H          0 DAV       0.039256
     97 H36         10.9810   -14.1020     3.8460 H          0 DAV       0.039256
     98 C46         10.2650   -13.0840     5.5810 C           0 DAV       0.907415
     99 O9          10.7580   -12.1940     6.3400 O           0 DAV      -0.897467
    100 O10          9.5400   -14.0120     6.0710 O           0 DAV      -0.897467
    101 C47          6.9960   -11.1390    -2.6870 C          0 DAV      -0.091567
    102 H37          6.1760   -11.0770    -1.9200 H          0 DAV       0.068033
    103 H38          6.5370   -10.9010    -3.6850 H          0 DAV       0.068033
    104 C48          7.4630   -12.5920    -2.7390 C          0 DAV      -0.146233
    105 H39          8.2860   -12.7000    -3.4900 H          0 DAV       0.055117
    106 H40          7.8550   -12.8960    -1.7340 H          0 DAV       0.055117
    107 C49          6.3160   -13.5750    -3.1070 C           0 DAV       0.656100
    108 O11          5.1540   -13.1290    -3.2180 O           0 DAV      -0.633656
    109 N5           6.6450   -14.9020    -3.2980 N           0 DAV      -0.553789
    110 H41          7.5880   -15.1500    -3.1080 H          0 DAV       0.293056
    111 C50          5.7960   -16.0770    -3.6420 C          0 DAV       0.135178
    112 C51          5.0420   -16.5930    -2.3760 C          0 DAV      -0.073733
    113 H42          5.6540   -16.3710    -1.4610 H          0 DAV       0.050552
    114 H43          4.0910   -16.0050    -2.2800 H          0 DAV       0.050552
    115 C52          4.7050   -18.0710    -2.3410 C          0 DAV      -0.174919
    116 H44          4.1760   -18.3750    -3.2810 H          0 DAV       0.039256
    117 H45          5.6490   -18.6740    -2.2860 H          0 DAV       0.039256
    118 C53          3.8150   -18.5350    -1.1850 C           0 DAV       0.907415
    119 O12          3.3410   -17.7340    -0.3260 O           0 DAV      -0.897467
    120 O13          3.5470   -19.7850    -1.1110 O           0 DAV      -0.897467
    121 C54          4.7690   -15.7000    -4.7610 C          0 DAV      -0.073733
    122 H46          4.1670   -14.8220    -4.4060 H          0 DAV       0.050552
    123 H47          5.3370   -15.3690    -5.6700 H          0 DAV       0.050552
    124 C55          3.8120   -16.8000    -5.1730 C          0 DAV      -0.174919
    125 H48          4.3540   -17.7760    -5.2810 H          0 DAV       0.039256
    126 H49          3.0350   -16.9310    -4.3750 H          0 DAV       0.039256
    127 C56          3.0760   -16.6160    -6.5030 C           0 DAV       0.907415
    128 O14          3.4020   -15.7280    -7.3430 O           0 DAV      -0.897467
    129 O15          2.1290   -17.4360    -6.7660 O           0 DAV      -0.897467
    130 C57          6.7120   -17.1860    -4.2480 C          0 DAV      -0.073733
    131 H50          6.0550   -18.0620    -4.4950 H          0 DAV       0.050552
    132 H51          7.1190   -16.8080    -5.2240 H          0 DAV       0.050552
    133 C58          7.8640   -17.7140    -3.4230 C          0 DAV      -0.174919
    134 H52          8.7340   -17.0080    -3.4660 H          0 DAV       0.039256
    135 H53          7.5660   -17.8090    -2.3480 H          0 DAV       0.039256
    136 C59          8.3800   -19.0810    -3.8970 C           0 DAV       0.907415
    137 O16          8.0650   -19.5560    -5.0320 O           0 DAV      -0.897467
    138 O17          9.1570   -19.7360    -3.1270 O           0 DAV      -0.897467
    139 C60          9.1720    -9.9910    -3.4410 C          0 DAV      -0.091567
    140 H54          9.8370    -9.1080    -3.2420 H          0 DAV       0.068033
    141 H55          9.7770   -10.9190    -3.2580 H          0 DAV       0.068033
    142 C61          8.7970    -9.9940    -4.9190 C          0 DAV      -0.146233
    143 H56          8.4950   -11.0320    -5.2150 H          0 DAV       0.055117
    144 H57          7.9130    -9.3250    -5.0920 H          0 DAV       0.055117
    145 C62          9.9030    -9.4420    -5.8580 C           0 DAV       0.656100
    146 O18         10.3240    -8.2860    -5.6350 O           0 DAV      -0.633656
    147 N6          10.3560   -10.2210    -6.9030 N           0 DAV      -0.553789
    148 H58          9.9430   -11.1220    -6.9860 H          0 DAV       0.293056
    149 C63         11.0590    -9.7900    -8.1480 C          0 DAV       0.135178
    150 C64         12.4460    -9.1610    -7.8270 C          0 DAV      -0.073733
    151 H59         12.2840    -8.0850    -7.5530 H          0 DAV       0.050552
    152 H60         12.8800    -9.6630    -6.9220 H          0 DAV       0.050552
    153 C65         13.4780    -9.2430    -8.9370 C          0 DAV      -0.174919
    154 H61         13.7740   -10.3140    -9.0970 H          0 DAV       0.039256
    155 H62         13.0420    -8.8750    -9.9020 H          0 DAV       0.039256
    156 C66         14.7740    -8.4540    -8.7380 C           0 DAV       0.907415
    157 O19         14.9560    -7.6740    -7.7590 O           0 DAV      -0.897467
    158 O20         15.6890    -8.5960    -9.6240 O           0 DAV      -0.897467
    159 C67         11.2010   -11.0240    -9.0890 C          0 DAV      -0.073733
    160 H63         10.1730   -11.3610    -9.3930 H          0 DAV       0.050552
    161 H64         11.7060   -10.6720   -10.0270 H          0 DAV       0.050552
    162 C68         11.9730   -12.2250    -8.5890 C          0 DAV      -0.174919
    163 H65         12.8730   -11.8960    -8.0090 H          0 DAV       0.039256
    164 H66         11.3360   -12.8360    -7.8970 H          0 DAV       0.039256
    165 C69         12.4400   -13.1570    -9.7160 C           0 DAV       0.907415
    166 O21         11.8660   -13.1640   -10.8500 O           0 DAV      -0.897467
    167 O22         13.4140   -13.9470    -9.4890 O           0 DAV      -0.897467
    168 C70         10.1510    -8.7570    -8.8990 C          0 DAV      -0.073733
    169 H67          9.1550    -9.2360    -9.0980 H          0 DAV       0.050552
    170 H68          9.9740    -7.8910    -8.2060 H          0 DAV       0.050552
    171 C71         10.6730    -8.2190   -10.2140 C          0 DAV      -0.174919
    172 H69         11.4600    -7.4460   -10.0130 H          0 DAV       0.039256
    173 H70         11.1470    -9.0350   -10.8180 H          0 DAV       0.039256
    174 C72          9.6330    -7.5880   -11.1450 C           0 DAV       0.907415
    175 O23          8.3920    -7.6380   -10.9020 O           0 DAV      -0.897467
    176 O24         10.0640    -7.0290   -12.2120 O           0 DAV      -0.897467
    177 C73          4.1680    -3.9010    -3.2990 C           0 DAV       0.677950
    178 O25          4.0030    -4.2580    -4.4790 O           0 DAV      -0.586100
    179 N7           3.8360    -2.5940    -2.9080 N           0 DAV      -0.584900
    180 H71          4.1890    -2.2590    -2.0440 H          0 DAV       0.304000
    181 C74          3.2980    -1.6010    -3.8020 C          0 DAV       0.141300
    182 H72          4.1530    -1.1230    -4.3720 H          0 DAV       0.056325
    183 H73          2.6570    -2.1360    -4.5640 H          0 DAV       0.056325
    184 C75          2.4900    -0.4640    -3.1930 C          0 DAV      -0.087300
    185 C76          3.1360     0.7510    -2.9210 C          0 DAV      -0.113500
    186 H74          4.2350     0.7920    -3.0120 H          0 DAV       0.137500
    187 C77          2.4470     1.9280    -2.5900 C          0 DAV      -0.087300
    188 C78          1.0420     1.8800    -2.4850 C          0 DAV      -0.009750
    189 C79          0.2490     3.0380    -2.1520 C          0 DAV      -0.113750
    190 H75          0.7840     3.9670    -1.8940 H          0 DAV       0.151750
    191 C80         -1.1080     3.0060    -2.1450 C          0 DAV      -0.117750
    192 H76         -1.6900     3.9040    -1.8860 H          0 DAV       0.134750
    193 C81         -1.8370     1.8100    -2.4770 C          0 DAV      -0.035000
    194 C82         -3.2390     1.7930    -2.5730 C          0 DAV      -0.103500
    195 H77         -3.7970     2.7220    -2.3800 H          0 DAV       0.136000
    196 C83         -3.9340     0.6330    -2.9380 C          0 DAV      -0.104800
    197 C84         -3.2000    -0.5420    -3.1430 C          0 DAV      -0.103500
    198 H78         -3.7280    -1.4730    -3.4030 H          0 DAV       0.136000
    199 C85         -1.7980    -0.5560    -3.0550 C          0 DAV      -0.035000
    200 C86         -1.0260    -1.7470    -3.3020 C          0 DAV      -0.117750
    201 H79         -1.5770    -2.6840    -3.4830 H          0 DAV       0.134750
    202 C87          0.3310    -1.7280    -3.3140 C          0 DAV      -0.113750
    203 H80          0.8970    -2.6560    -3.4980 H          0 DAV       0.151750
    204 C88          1.0840    -0.5210    -3.0790 C          0 DAV      -0.009750
    205 C89          0.3550     0.6600    -2.7510 C          0 DAV      -0.024500
    206 C90         -1.0880     0.6340    -2.7470 C          0 DAV      -0.010000
    207 C91         -5.4090     0.6960    -3.2870 C          0 DAV       0.151300
    208 H81         -5.5980     1.7110    -3.7520 H          0 DAV       0.045700
    209 H82         -5.6200    -0.0770    -4.0840 H          0 DAV       0.045700
    210 N8          -6.3600     0.4900    -2.2240 N           0 DAV      -0.586400
    211 H83         -6.0670     0.7170    -1.3050 H          0 DAV       0.309000
    212 C92         -7.7090     0.1960    -2.4550 C           0 DAV       0.678200
    213 O26         -8.1470     0.1620    -3.6200 O           0 DAV      -0.600100
    214 C93          3.2140     3.2410    -2.5750 C          0 DAV       0.141300
    215 H84          4.1740     3.0720    -3.1520 H          0 DAV       0.056325
    216 H85          2.6130     4.0050    -3.1530 H          0 DAV       0.056325
    217 N9           3.5370     3.8210    -1.2950 N           0 DAV      -0.584900
    218 H86          3.8550     3.1920    -0.5970 H          0 DAV       0.304000
    219 C94          3.8250     5.1860    -1.1300 C           0 DAV       0.677950
    220 O27          3.7000     5.9680    -2.0900 O           0 DAV      -0.586100
    221 C95          4.2020     5.6510     0.2500 C          0 DAV      -0.160100
    222 C96          5.0270     6.7600     0.5240 C          0 DAV      -0.014250
    223 H87          5.4260     7.3570    -0.3150 H          0 DAV       0.178500
    224 C97          5.3630     7.1060     1.8510 C          0 DAV      -0.125100
    225 C98          4.9070     6.2780     2.8970 C          0 DAV      -0.014250
    226 H88          5.2060     6.4900     3.9380 H          0 DAV       0.178500
    227 C99          4.0850     5.1660     2.6290 C          0 DAV      -0.160100
    228 C100         3.6820     4.9160     1.3160 C          0 DAV      -0.100000
    229 H89          2.9180     4.1440     1.1230 H          0 DAV       0.137000
    230 C101         3.5860     4.1990     3.6650 C           0 DAV       0.677950
    231 O28          3.2870     4.5400     4.8230 O           0 DAV      -0.586100
    232 N10          3.3910     2.8740     3.2470 N           0 DAV      -0.584900
    233 H90          3.8260     2.5810     2.4060 H          0 DAV       0.304000
    234 C102         2.9160     1.8320     4.1200 C          0 DAV       0.141300
    235 H91          2.1910     2.2980     4.8510 H          0 DAV       0.056325
    236 H92          3.7860     1.4380     4.7290 H          0 DAV       0.056325
    237 C103         6.4340     8.1850     2.1120 C           0 DAV       0.665700
    238 O29          7.6110     7.8060     1.9500 O           0 DAV      -0.590600
    239 N11          6.1160     9.4740     2.4930 N           0 DAV      -0.554400
    240 H93          5.1540     9.6840     2.6160 H          0 DAV       0.307000
    241 C104         7.0440    10.6140     2.7900 C          0 DAV       0.159400
    242 C105         6.1580    11.8530     3.1610 C          0 DAV      -0.091567
    243 H94          5.4470    12.0360     2.3100 H          0 DAV       0.068033
    244 H95          5.5430    11.5800     4.0630 H          0 DAV       0.068033
    245 C106         6.8290    13.1900     3.4690 C          0 DAV      -0.146233
    246 H96          7.5980    13.0550     4.2730 H          0 DAV       0.055117
    247 H97          7.3500    13.5730     2.5540 H          0 DAV       0.055117
    248 C107         5.8080    14.2540     3.9670 C           0 DAV       0.656100
    249 O30          4.6520    13.8770     4.2530 O           0 DAV      -0.633656
    250 N12          6.2360    15.5610     4.0660 N           0 DAV      -0.553789
    251 H98          7.1700    15.7330     3.7680 H          0 DAV       0.293056
    252 C108         5.6200    16.7710     4.6730 C          0 DAV       0.135178
    253 C109         5.1230    17.7350     3.5540 C          0 DAV      -0.073733
    254 H99          5.9280    17.8510     2.7800 H          0 DAV       0.050552
    255 H100         4.2470    17.2740     3.0290 H          0 DAV       0.050552
    256 C110         4.7420    19.1170     4.0530 C          0 DAV      -0.174919
    257 H101         4.0100    19.0200     4.8970 H          0 DAV       0.039256
    258 H102         5.6530    19.6330     4.4580 H          0 DAV       0.039256
    259 C111         4.1260    20.0710     3.0270 C           0 DAV       0.907415
    260 O31          3.8010    19.7010     1.8600 O           0 DAV      -0.897467
    261 O32          3.9360    21.2870     3.3850 O           0 DAV      -0.897467
    262 C112         4.4970    16.4570     5.7080 C          0 DAV      -0.073733
    263 H103         4.7170    15.4610     6.1770 H          0 DAV       0.050552
    264 H104         4.5750    17.2230     6.5310 H          0 DAV       0.050552
    265 C113         3.0480    16.4590     5.2690 C          0 DAV      -0.174919
    266 H105         2.8600    17.2270     4.4760 H          0 DAV       0.039256
    267 H106         2.7860    15.4590     4.8370 H          0 DAV       0.039256
    268 C114         2.0560    16.7790     6.3950 C           0 DAV       0.907415
    269 O33          2.4370    17.2490     7.5130 O           0 DAV      -0.897467
    270 O34          0.8140    16.5990     6.1700 O           0 DAV      -0.897467
    271 C115         6.7240    17.5060     5.5210 C          0 DAV      -0.073733
    272 H107         6.2130    18.3500     6.0610 H          0 DAV       0.050552
    273 H108         7.0900    16.7960     6.3080 H          0 DAV       0.050552
    274 C116         7.9150    18.0950     4.7990 C          0 DAV      -0.174919
    275 H109         8.6640    17.2950     4.5640 H          0 DAV       0.039256
    276 H110         7.5970    18.5520     3.8270 H          0 DAV       0.039256
    277 C117         8.6470    19.1940     5.5830 C           0 DAV       0.907415
    278 O35          8.2380    19.5990     6.7150 O           0 DAV      -0.897467
    279 O36          9.6870    19.7140     5.0580 O           0 DAV      -0.897467
    280 C118         8.0360    10.2600     3.9610 C          0 DAV      -0.091567
    281 H111         8.4160     9.2160     3.7840 H          0 DAV       0.068033
    282 H112         8.9170    10.9500     3.8570 H          0 DAV       0.068033
    283 C119         7.5870    10.3650     5.4130 C          0 DAV      -0.146233
    284 H113         7.3690    11.4340     5.6650 H          0 DAV       0.055117
    285 H114         6.6440     9.7790     5.5670 H          0 DAV       0.055117
    286 C120         8.6230     9.7580     6.3970 C           0 DAV       0.656100
    287 O37          9.1040     8.6370     6.1220 O           0 DAV      -0.633656
    288 N13          8.9540    10.4550     7.5410 N           0 DAV      -0.553789
    289 H115         8.4800    11.3160     7.6880 H          0 DAV       0.293056
    290 C121         9.7220     9.9820     8.7200 C          0 DAV       0.135178
    291 C122         9.8080    11.1440     9.7620 C          0 DAV      -0.073733
    292 H116        10.3050    12.0320     9.2900 H          0 DAV       0.050552
    293 H117         8.7740    11.4790    10.0400 H          0 DAV       0.050552
    294 C123        10.5540    10.7860    11.0330 C          0 DAV      -0.174919
    295 H118        10.0500     9.9130    11.5260 H          0 DAV       0.039256
    296 H119        11.6000    10.4730    10.7770 H          0 DAV       0.039256
    297 C124        10.6540    11.8890    12.0880 C           0 DAV       0.907415
    298 O38         11.3560    11.6560    13.1340 O           0 DAV      -0.897467
    299 O39         10.0630    13.0040    11.9660 O           0 DAV      -0.897467
    300 C125         9.0460     8.7380     9.3780 C          0 DAV      -0.073733
    301 H120         8.9100     7.9590     8.5810 H          0 DAV       0.050552
    302 H121         9.7730     8.3140    10.1240 H          0 DAV       0.050552
    303 C126         7.7340     8.9470    10.0970 C          0 DAV      -0.174919
    304 H122         7.7370     9.9180    10.6570 H          0 DAV       0.039256
    305 H123         6.8910     8.9890     9.3610 H          0 DAV       0.039256
    306 C127         7.3990     7.8680    11.1360 C           0 DAV       0.907415
    307 O40          8.2210     6.9490    11.4340 O           0 DAV      -0.897467
    308 O41          6.2680     7.9380    11.7200 O           0 DAV      -0.897467
    309 C128        11.1600     9.5030     8.3430 C          0 DAV      -0.073733
    310 H124        11.5440     8.9040     9.2140 H          0 DAV       0.050552
    311 H125        11.0730     8.7950     7.4760 H          0 DAV       0.050552
    312 C129        12.2110    10.5440     8.0250 C          0 DAV      -0.174919
    313 H126        12.1160    10.8720     6.9580 H          0 DAV       0.039256
    314 H127        12.0830    11.4540     8.6650 H          0 DAV       0.039256
    315 C130        13.6560    10.0760     8.2430 C           0 DAV       0.907415
    316 O42         13.9330     8.9090     8.6580 O           0 DAV      -0.897467
    317 O43         14.5950    10.9110     8.0130 O           0 DAV      -0.897467
    318 C131         7.9800    10.9370     1.5690 C          0 DAV      -0.091567
    319 H128         8.8210    11.5630     1.9720 H          0 DAV       0.068033
    320 H129         8.4250     9.9650     1.2150 H          0 DAV       0.068033
    321 C132         7.4400    11.6820     0.3550 C          0 DAV      -0.146233
    322 H130         6.5090    11.1820    -0.0180 H          0 DAV       0.055117
    323 H131         7.1730    12.7310     0.6410 H          0 DAV       0.055117
    324 C133         8.4280    11.6620    -0.8430 C           0 DAV       0.656100
    325 O44          8.8570    10.5500    -1.2220 O           0 DAV      -0.633656
    326 N14          8.7770    12.8490    -1.4550 N           0 DAV      -0.553789
    327 H132         8.3380    13.6700    -1.1090 H          0 DAV       0.293056
    328 C134         9.4680    13.0430    -2.7550 C          0 DAV       0.135178
    329 C135         9.6270    14.5770    -3.0140 C          0 DAV      -0.073733
    330 H133         8.6190    15.0690    -2.9910 H          0 DAV       0.050552
    331 H134        10.2160    15.0380    -2.1790 H          0 DAV       0.050552
    332 C136        10.2970    14.9170    -4.3310 C          0 DAV      -0.174919
    333 H135        11.3060    14.4290    -4.3750 H          0 DAV       0.039256
    334 H136         9.6850    14.5080    -5.1780 H          0 DAV       0.039256
    335 C137        10.5080    16.4060    -4.6140 C           0 DAV       0.907415
    336 O45         10.1650    17.3090    -3.7930 O           0 DAV      -0.897467
    337 O46         11.0520    16.7340    -5.7260 O           0 DAV      -0.897467
    338 C138        10.8660    12.3510    -2.8000 C          0 DAV      -0.073733
    339 H137        10.7440    11.2970    -2.4350 H          0 DAV       0.050552
    340 H138        11.1640    12.2860    -3.8830 H          0 DAV       0.050552
    341 C139        12.0190    12.9960    -2.0630 C          0 DAV      -0.174919
    342 H139        11.9520    14.1130    -2.1080 H          0 DAV       0.039256
    343 H140        11.9940    12.7050    -0.9820 H          0 DAV       0.039256
    344 C140        13.4070    12.6380    -2.6130 C           0 DAV       0.907415
    345 O47         13.5590    11.8860    -3.6240 O           0 DAV      -0.897467
    346 O48         14.4270    13.1420    -2.0330 O           0 DAV      -0.897467
    347 C141         8.6630    12.3970    -3.9270 C          0 DAV      -0.073733
    348 H141         9.3170    12.4210    -4.8400 H          0 DAV       0.050552
    349 H142         8.4970    11.3160    -3.6750 H          0 DAV       0.050552
    350 C142         7.3420    13.0290    -4.3010 C          0 DAV      -0.174919
    351 H143         6.5430    12.7110    -3.5830 H          0 DAV       0.039256
    352 H144         7.4090    14.1460    -4.2530 H          0 DAV       0.039256
    353 C143         6.8590    12.7000    -5.7200 C           0 DAV       0.907415
    354 O49          7.5820    12.0580    -6.5410 O           0 DAV      -0.897467
    355 O50          5.7060    13.1220    -6.0660 O           0 DAV      -0.897467
    356 C144        -3.3590     0.3850     2.5020 C          0 DAV      -0.103500
    357 H145        -3.9670     1.2970     2.6120 H          0 DAV       0.136000
    358 C145       -14.6840    -0.2550    -0.2080 C          0 DAV       0.158400
    359 C146       -14.9700    -0.9070     1.1890 C          0 DAV      -0.089733
    360 H146       -14.7150    -1.9980     1.1060 H          0 DAV       0.068367
    361 H147       -14.2530    -0.4480     1.9250 H          0 DAV       0.068367
    362 C147       -16.3580    -0.8190     1.8160 C          0 DAV      -0.148067
    363 H148       -16.6580     0.2560     1.9220 H          0 DAV       0.056033
    364 H149       -17.1080    -1.3320     1.1610 H          0 DAV       0.056033
    365 C148       -16.3940    -1.4680     3.2280 C           0 DAV       0.658100
    366 O51        -15.3260    -1.8770     3.7340 O           0 DAV      -0.633656
    367 N15        -17.6140    -1.5720     3.8640 N           0 DAV      -0.553789
    368 H150       -18.3930    -1.1840     3.3860 H          0 DAV       0.293056
    369 C149       -17.9290    -2.0780     5.2240 C          0 DAV       0.135178
    370 C150       -19.4790    -2.0290     5.4160 C          0 DAV      -0.073733
    371 H151       -19.8440    -0.9800     5.2590 H          0 DAV       0.050552
    372 H152       -19.9720    -2.6530     4.6240 H          0 DAV       0.050552
    373 C151       -19.9610    -2.5040     6.7730 C          0 DAV      -0.174919
    374 H153       -19.6240    -3.5600     6.9410 H          0 DAV       0.039256
    375 H154       -19.5000    -1.8700     7.5760 H          0 DAV       0.039256
    376 C152       -21.4760    -2.4720     6.9870 C           0 DAV       0.907415
    377 O52        -22.2810    -2.0670     6.0950 O           0 DAV      -0.897467
    378 O53        -21.9330    -2.8700     8.1150 O           0 DAV      -0.897467
    379 C153       -17.4060    -3.5310     5.4550 C          0 DAV      -0.073733
    380 H155       -16.3360    -3.5710     5.1190 H          0 DAV       0.050552
    381 H156       -17.4010    -3.7060     6.5670 H          0 DAV       0.050552
    382 C154       -18.1580    -4.6910     4.8410 C          0 DAV      -0.174919
    383 H157       -19.2610    -4.4990     4.8300 H          0 DAV       0.039256
    384 H158       -17.8360    -4.8430     3.7800 H          0 DAV       0.039256
    385 C155       -17.9620    -6.0220     5.5820 C           0 DAV       0.907415
    386 O54        -17.1530    -6.1370     6.5540 O           0 DAV      -0.897467
    387 O55        -18.6510    -7.0260     5.2020 O           0 DAV      -0.897467
    388 C156       -17.2270    -1.2340     6.3370 C          0 DAV      -0.073733
    389 H159       -17.2790    -1.8310     7.2890 H          0 DAV       0.050552
    390 H160       -16.1400    -1.1510     6.0680 H          0 DAV       0.050552
    391 C157       -17.7630     0.1430     6.6600 C          0 DAV      -0.174919
    392 H161       -17.3430     0.8990     5.9490 H          0 DAV       0.039256
    393 H162       -18.8780     0.1750     6.5600 H          0 DAV       0.039256
    394 C158       -17.4470     0.6180     8.0860 C           0 DAV       0.907415
    395 O56        -16.7160    -0.0590     8.8720 O           0 DAV      -0.897467
    396 O57        -17.9540     1.7220     8.4740 O           0 DAV      -0.897467
    397 C159       -15.0340     1.2860    -0.2010 C          0 DAV      -0.089733
    398 H163       -14.8790     1.6480     0.8500 H          0 DAV       0.068367
    399 H164       -14.2830     1.8270    -0.8390 H          0 DAV       0.068367
    400 C160       -16.4160     1.7380    -0.6760 C          0 DAV      -0.148067
    401 H165       -16.6510     1.2870    -1.6770 H          0 DAV       0.056033
    402 H166       -17.1900     1.3920     0.0560 H          0 DAV       0.056033
    403 C161       -16.5570     3.2720    -0.8740 C           0 DAV       0.658100
    404 O58        -15.5510     4.0050    -0.7750 O           0 DAV      -0.633656
    405 N16        -17.8200     3.7510    -1.1710 N           0 DAV      -0.553789
    406 H167       -18.5430     3.0700    -1.2130 H          0 DAV       0.293056
    407 C162       -18.2640     5.1010    -1.6160 C          0 DAV       0.135178
    408 C163       -18.2420     6.1080    -0.4250 C          0 DAV      -0.073733
    409 H168       -18.4520     5.5590     0.5310 H          0 DAV       0.050552
    410 H169       -17.2010     6.5180    -0.3410 H          0 DAV       0.050552
    411 C164       -19.2210     7.2640    -0.5050 C          0 DAV      -0.174919
    412 H170       -19.1110     7.8030    -1.4810 H          0 DAV       0.039256
    413 H171       -20.2720     6.8740    -0.4600 H          0 DAV       0.039256
    414 C165       -19.1070     8.3350     0.5830 C           0 DAV       0.907415
    415 O59        -18.2350     8.2880     1.5000 O           0 DAV      -0.897467
    416 O60        -19.9370     9.3100     0.5380 O           0 DAV      -0.897467
    417 C166       -17.3370     5.6090    -2.7720 C          0 DAV      -0.073733
    418 H172       -16.2790     5.6010    -2.3960 H          0 DAV       0.050552
    419 H173       -17.3950     4.8790    -3.6230 H          0 DAV       0.050552
    420 C167       -17.6440     6.9880    -3.3160 C          0 DAV      -0.174919
    421 H174       -18.7500     7.1340    -3.4240 H          0 DAV       0.039256
    422 H175       -17.2700     7.7620    -2.5950 H          0 DAV       0.039256
    423 C168       -17.0740     7.3270    -4.6970 C           0 DAV       0.907415
    424 O61        -16.6360     6.4390    -5.4860 O           0 DAV      -0.897467
    425 O62        -17.1050     8.5540    -5.0600 O           0 DAV      -0.897467
    426 C169       -19.6950     4.9760    -2.2270 C          0 DAV      -0.073733
    427 H176       -20.0080     6.0020    -2.5550 H          0 DAV       0.050552
    428 H177       -19.6270     4.3530    -3.1580 H          0 DAV       0.050552
    429 C170       -20.8060     4.4250    -1.3610 C          0 DAV      -0.174919
    430 H178       -20.7410     3.3070    -1.3040 H          0 DAV       0.039256
    431 H179       -20.7170     4.8160    -0.3150 H          0 DAV       0.039256
    432 C171       -22.2120     4.7600    -1.8790 C           0 DAV       0.907415
    433 O63        -22.4090     5.1330    -3.0770 O           0 DAV      -0.897467
    434 O64        -23.1990     4.6370    -1.0810 O           0 DAV      -0.897467
    435 C172       -15.5460    -0.9100    -1.3330 C          0 DAV      -0.089733
    436 H180       -16.6120    -0.7440    -1.0130 H          0 DAV       0.068367
    437 H181       -15.3770    -0.3150    -2.2730 H          0 DAV       0.068367
    438 C173       -15.4460    -2.3820    -1.7180 C          0 DAV      -0.148067
    439 H182       -14.3980    -2.6510    -2.0050 H          0 DAV       0.056033
    440 H183       -15.7480    -3.0240    -0.8520 H          0 DAV       0.056033
    441 C174       -16.3520    -2.6930    -2.9440 C           0 DAV       0.658100
    442 O65        -16.8230    -1.7400    -3.6000 O           0 DAV      -0.633656
    443 N17        -16.5840    -4.0120    -3.2680 N           0 DAV      -0.553789
    444 H184       -16.1900    -4.6940    -2.6660 H          0 DAV       0.293056
    445 C175       -17.3050    -4.5710    -4.4400 C          0 DAV       0.135178
    446 C176       -17.1740    -6.1250    -4.3890 C          0 DAV      -0.073733
    447 H185       -16.0880    -6.4080    -4.3810 H          0 DAV       0.050552
    448 H186       -17.6030    -6.5070    -3.4240 H          0 DAV       0.050552
    449 C177       -17.8460    -6.8550    -5.5350 C          0 DAV      -0.174919
    450 H187       -18.9290    -6.5670    -5.5830 H          0 DAV       0.039256
    451 H188       -17.3720    -6.5480    -6.5040 H          0 DAV       0.039256
    452 C178       -17.7780    -8.3810    -5.4570 C           0 DAV       0.907415
    453 O66        -17.1720    -8.9800    -4.5180 O           0 DAV      -0.897467
    454 O67        -18.3530    -9.0570    -6.3790 O           0 DAV      -0.897467
    455 C179       -18.8110    -4.1510    -4.4730 C          0 DAV      -0.073733
    456 H189       -18.8620    -3.0510    -4.2580 H          0 DAV       0.050552
    457 H190       -19.1670    -4.2910    -5.5310 H          0 DAV       0.050552
    458 C180       -19.8030    -4.8740    -3.5880 C          0 DAV      -0.174919
    459 H191       -19.5110    -5.9460    -3.4420 H          0 DAV       0.039256
    460 H192       -19.8350    -4.3980    -2.5750 H          0 DAV       0.039256
    461 C181       -21.2370    -4.9030    -4.1360 C           0 DAV       0.907415
    462 O68        -21.5350    -4.4290    -5.2760 O           0 DAV      -0.897467
    463 O69        -22.1410    -5.4480    -3.4180 O           0 DAV      -0.897467
    464 C182       -16.7260    -4.0350    -5.7870 C          0 DAV      -0.073733
    465 H193       -17.4410    -4.3400    -6.6000 H          0 DAV       0.050552
    466 H194       -16.7360    -2.9140    -5.7440 H          0 DAV       0.050552
    467 C183       -15.3550    -4.5020    -6.2150 C          0 DAV      -0.174919
    468 H195       -14.5610    -3.9590    -5.6420 H          0 DAV       0.039256
    469 H196       -15.2270    -5.5960    -6.0120 H          0 DAV       0.039256
    470 C184       -15.0770    -4.3160    -7.7130 C           0 DAV       0.907415
    471 O70        -16.0090    -4.0680    -8.5390 O           0 DAV      -0.897467
    472 O71        -13.8760    -4.4560    -8.1160 O           0 DAV      -0.897467
@<TRIPOS>BOND
     1     1     2 1   
     2     2     3 1   
     3     2   358 1   
     4     3     4 2   
     5     3     5 1   
     6     5     6 ar  
     7     5    12 ar  
     8     6     7 1   
     9     6     8 ar  
    10     8     9 ar  
    11     8   212 1   
    12     9    10 1   
    13     9    11 ar  
    14    11    12 ar  
    15    11    14 1   
    16    12    13 1   
    17    14    15 2   
    18    14    16 1   
    19    16    17 1   
    20    16    18 1   
    21    18    19 1   
    22    18    20 1   
    23    18    21 1   
    24    21    22 ar  
    25    21   356 ar  
    26    22    23 1   
    27    22    24 ar  
    28    24    25 ar  
    29    24    31 ar  
    30    25    26 1   
    31    25    27 ar  
    32    27    28 1   
    33    27    29 ar  
    34    29    30 ar  
    35    29    41 ar  
    36    30    31 ar  
    37    30    37 ar  
    38    31    32 ar  
    39    32    33 ar  
    40    32   356 ar  
    41    33    34 1   
    42    33    35 ar  
    43    35    36 1   
    44    35    37 ar  
    45    37    38 ar  
    46    38    39 ar  
    47    38   234 1   
    48    39    40 1   
    49    39    41 ar  
    50    41    42 1   
    51    42    43 1   
    52    42    44 1   
    53    42    45 1   
    54    45    46 1   
    55    45    47 1   
    56    47    48 2   
    57    47    49 1   
    58    49    50 ar  
    59    49    56 ar  
    60    50    51 1   
    61    50    52 ar  
    62    52    53 ar  
    63    52   177 1   
    64    53    54 1   
    65    53    55 ar  
    66    55    56 ar  
    67    55    58 1   
    68    56    57 1   
    69    58    59 2   
    70    58    60 1   
    71    60    61 1   
    72    60    62 1   
    73    62    63 1   
    74    62   101 1   
    75    62   139 1   
    76    63    64 1   
    77    63    65 1   
    78    63    66 1   
    79    66    67 1   
    80    66    68 1   
    81    66    69 1   
    82    69    70 2   
    83    69    71 1   
    84    71    72 1   
    85    71    73 1   
    86    73    74 1   
    87    73    83 1   
    88    73    92 1   
    89    74    75 1   
    90    74    76 1   
    91    74    77 1   
    92    77    78 1   
    93    77    79 1   
    94    77    80 1   
    95    80    81 1   
    96    80    82 1   
    97    83    84 1   
    98    83    85 1   
    99    83    86 1   
   100    86    87 1   
   101    86    88 1   
   102    86    89 1   
   103    89    90 1   
   104    89    91 1   
   105    92    93 1   
   106    92    94 1   
   107    92    95 1   
   108    95    96 1   
   109    95    97 1   
   110    95    98 1   
   111    98    99 1   
   112    98   100 1   
   113   101   102 1   
   114   101   103 1   
   115   101   104 1   
   116   104   105 1   
   117   104   106 1   
   118   104   107 1   
   119   107   108 2   
   120   107   109 1   
   121   109   110 1   
   122   109   111 1   
   123   111   112 1   
   124   111   121 1   
   125   111   130 1   
   126   112   113 1   
   127   112   114 1   
   128   112   115 1   
   129   115   116 1   
   130   115   117 1   
   131   115   118 1   
   132   118   119 1   
   133   118   120 1   
   134   121   122 1   
   135   121   123 1   
   136   121   124 1   
   137   124   125 1   
   138   124   126 1   
   139   124   127 1   
   140   127   128 1   
   141   127   129 1   
   142   130   131 1   
   143   130   132 1   
   144   130   133 1   
   145   133   134 1   
   146   133   135 1   
   147   133   136 1   
   148   136   137 1   
   149   136   138 1   
   150   139   140 1   
   151   139   141 1   
   152   139   142 1   
   153   142   143 1   
   154   142   144 1   
   155   142   145 1   
   156   145   146 2   
   157   145   147 1   
   158   147   148 1   
   159   147   149 1   
   160   149   150 1   
   161   149   159 1   
   162   149   168 1   
   163   150   151 1   
   164   150   152 1   
   165   150   153 1   
   166   153   154 1   
   167   153   155 1   
   168   153   156 1   
   169   156   157 1   
   170   156   158 1   
   171   159   160 1   
   172   159   161 1   
   173   159   162 1   
   174   162   163 1   
   175   162   164 1   
   176   162   165 1   
   177   165   166 1   
   178   165   167 1   
   179   168   169 1   
   180   168   170 1   
   181   168   171 1   
   182   171   172 1   
   183   171   173 1   
   184   171   174 1   
   185   174   175 1   
   186   174   176 1   
   187   177   178 2   
   188   177   179 1   
   189   179   180 1   
   190   179   181 1   
   191   181   182 1   
   192   181   183 1   
   193   181   184 1   
   194   184   185 ar  
   195   184   204 ar  
   196   185   186 1   
   197   185   187 ar  
   198   187   188 ar  
   199   187   214 1   
   200   188   189 ar  
   201   188   205 ar  
   202   189   190 1   
   203   189   191 ar  
   204   191   192 1   
   205   191   193 ar  
   206   193   194 ar  
   207   193   206 ar  
   208   194   195 1   
   209   194   196 ar  
   210   196   197 ar  
   211   196   207 1   
   212   197   198 1   
   213   197   199 ar  
   214   199   200 ar  
   215   199   206 ar  
   216   200   201 1   
   217   200   202 ar  
   218   202   203 1   
   219   202   204 ar  
   220   204   205 ar  
   221   205   206 ar  
   222   207   208 1   
   223   207   209 1   
   224   207   210 1   
   225   210   211 1   
   226   210   212 1   
   227   212   213 2   
   228   214   215 1   
   229   214   216 1   
   230   214   217 1   
   231   217   218 1   
   232   217   219 1   
   233   219   220 2   
   234   219   221 1   
   235   221   222 ar  
   236   221   228 ar  
   237   222   223 1   
   238   222   224 ar  
   239   224   225 ar  
   240   224   237 1   
   241   225   226 1   
   242   225   227 ar  
   243   227   228 ar  
   244   227   230 1   
   245   228   229 1   
   246   230   231 2   
   247   230   232 1   
   248   232   233 1   
   249   232   234 1   
   250   234   235 1   
   251   234   236 1   
   252   237   238 2   
   253   237   239 1   
   254   239   240 1   
   255   239   241 1   
   256   241   242 1   
   257   241   280 1   
   258   241   318 1   
   259   242   243 1   
   260   242   244 1   
   261   242   245 1   
   262   245   246 1   
   263   245   247 1   
   264   245   248 1   
   265   248   249 2   
   266   248   250 1   
   267   250   251 1   
   268   250   252 1   
   269   252   253 1   
   270   252   262 1   
   271   252   271 1   
   272   253   254 1   
   273   253   255 1   
   274   253   256 1   
   275   256   257 1   
   276   256   258 1   
   277   256   259 1   
   278   259   260 1   
   279   259   261 1   
   280   262   263 1   
   281   262   264 1   
   282   262   265 1   
   283   265   266 1   
   284   265   267 1   
   285   265   268 1   
   286   268   269 1   
   287   268   270 1   
   288   271   272 1   
   289   271   273 1   
   290   271   274 1   
   291   274   275 1   
   292   274   276 1   
   293   274   277 1   
   294   277   278 1   
   295   277   279 1   
   296   280   281 1   
   297   280   282 1   
   298   280   283 1   
   299   283   284 1   
   300   283   285 1   
   301   283   286 1   
   302   286   287 2   
   303   286   288 1   
   304   288   289 1   
   305   288   290 1   
   306   290   291 1   
   307   290   300 1   
   308   290   309 1   
   309   291   292 1   
   310   291   293 1   
   311   291   294 1   
   312   294   295 1   
   313   294   296 1   
   314   294   297 1   
   315   297   298 1   
   316   297   299 1   
   317   300   301 1   
   318   300   302 1   
   319   300   303 1   
   320   303   304 1   
   321   303   305 1   
   322   303   306 1   
   323   306   307 1   
   324   306   308 1   
   325   309   310 1   
   326   309   311 1   
   327   309   312 1   
   328   312   313 1   
   329   312   314 1   
   330   312   315 1   
   331   315   316 1   
   332   315   317 1   
   333   318   319 1   
   334   318   320 1   
   335   318   321 1   
   336   321   322 1   
   337   321   323 1   
   338   321   324 1   
   339   324   325 2   
   340   324   326 1   
   341   326   327 1   
   342   326   328 1   
   343   328   329 1   
   344   328   338 1   
   345   328   347 1   
   346   329   330 1   
   347   329   331 1   
   348   329   332 1   
   349   332   333 1   
   350   332   334 1   
   351   332   335 1   
   352   335   336 1   
   353   335   337 1   
   354   338   339 1   
   355   338   340 1   
   356   338   341 1   
   357   341   342 1   
   358   341   343 1   
   359   341   344 1   
   360   344   345 1   
   361   344   346 1   
   362   347   348 1   
   363   347   349 1   
   364   347   350 1   
   365   350   351 1   
   366   350   352 1   
   367   350   353 1   
   368   353   354 1   
   369   353   355 1   
   370   356   357 1   
   371   358   359 1   
   372   358   397 1   
   373   358   435 1   
   374   359   360 1   
   375   359   361 1   
   376   359   362 1   
   377   362   363 1   
   378   362   364 1   
   379   362   365 1   
   380   365   366 2   
   381   365   367 1   
   382   367   368 1   
   383   367   369 1   
   384   369   370 1   
   385   369   379 1   
   386   369   388 1   
   387   370   371 1   
   388   370   372 1   
   389   370   373 1   
   390   373   374 1   
   391   373   375 1   
   392   373   376 1   
   393   376   377 1   
   394   376   378 1   
   395   379   380 1   
   396   379   381 1   
   397   379   382 1   
   398   382   383 1   
   399   382   384 1   
   400   382   385 1   
   401   385   386 1   
   402   385   387 1   
   403   388   389 1   
   404   388   390 1   
   405   388   391 1   
   406   391   392 1   
   407   391   393 1   
   408   391   394 1   
   409   394   395 1   
   410   394   396 1   
   411   397   398 1   
   412   397   399 1   
   413   397   400 1   
   414   400   401 1   
   415   400   402 1   
   416   400   403 1   
   417   403   404 2   
   418   403   405 1   
   419   405   406 1   
   420   405   407 1   
   421   407   408 1   
   422   407   417 1   
   423   407   426 1   
   424   408   409 1   
   425   408   410 1   
   426   408   411 1   
   427   411   412 1   
   428   411   413 1   
   429   411   414 1   
   430   414   415 1   
   431   414   416 1   
   432   417   418 1   
   433   417   419 1   
   434   417   420 1   
   435   420   421 1   
   436   420   422 1   
   437   420   423 1   
   438   423   424 1   
   439   423   425 1   
   440   426   427 1   
   441   426   428 1   
   442   426   429 1   
   443   429   430 1   
   444   429   431 1   
   445   429   432 1   
   446   432   433 1   
   447   432   434 1   
   448   435   436 1   
   449   435   437 1   
   450   435   438 1   
   451   438   439 1   
   452   438   440 1   
   453   438   441 1   
   454   441   442 2   
   455   441   443 1   
   456   443   444 1   
   457   443   445 1   
   458   445   446 1   
   459   445   455 1   
   460   445   464 1   
   461   446   447 1   
   462   446   448 1   
   463   446   449 1   
   464   449   450 1   
   465   449   451 1   
   466   449   452 1   
   467   452   453 1   
   468   452   454 1   
   469   455   456 1   
   470   455   457 1   
   471   455   458 1   
   472   458   459 1   
   473   458   460 1   
   474   458   461 1   
   475   461   462 1   
   476   461   463 1   
   477   464   465 1   
   478   464   466 1   
   479   464   467 1   
   480   467   468 1   
   481   467   469 1   
   482   467   470 1   
   483   470   471 1   
   484   470   472 1   
@<TRIPOS>SUBSTRUCTURE
     1 DAV         1 TEMP              0 ****  ****    0 ROOT
