@<TRIPOS>MOLECULE
URE
  106   110     1     0     0
SMALL
bcc


@<TRIPOS>ATOM
      1 C           -3.2660     0.7130     2.1190 C          0 URE      -0.213600
      2 C1          -4.2610     0.9810     1.0200 C           0 URE       0.594100
      3 O           -3.9760     0.7320    -0.1270 O           0 URE      -0.569100
      4 C2          -5.6120     1.5600     1.3510 C          0 URE      -0.170900
      5 C3          -6.3710     1.8570     0.0560 C          0 URE       0.079000
      6 H           -7.3450     2.2840     0.2980 H          0 URE       0.098700
      7 S           -6.6040     0.3170    -0.8720 S          0 URE      -0.281700
      8 C4          -7.1700    -0.7750     0.4660 C          0 URE      -0.008300
      9 C5          -7.5390    -2.1460    -0.1140 C          0 URE      -0.029050
     10 N           -6.5810    -3.1590     0.3750 N           0 URE      -0.515400
     11 C6          -5.9510    -3.9080    -0.5820 C           0 URE       0.663700
     12 O1          -6.4210    -4.0160    -1.6980 O           0 URE      -0.649350
     13 C7          -4.6840    -4.5800    -0.2260 C          0 URE      -0.123100
     14 C8          -3.8290    -4.9960    -1.2450 C          0 URE      -0.088250
     15 C9          -2.5550    -5.4950    -0.9350 C          0 URE      -0.040750
     16 C10         -1.6590    -5.9360    -1.9280 C          0 URE      -0.129750
     17 C11         -0.3640    -6.2080    -1.6150 C          0 URE      -0.102750
     18 C12          0.1000    -6.0520    -0.2980 C          0 URE      -0.123100
     19 C13         -0.8100    -5.8000     0.7330 C          0 URE      -0.088250
     20 C14         -2.1540    -5.5380     0.4300 C          0 URE      -0.040750
     21 C15         -3.1100    -5.3050     1.4370 C          0 URE      -0.129750
     22 C16         -4.3510    -4.8540     1.1150 C          0 URE      -0.102750
     23 C17          1.5440    -6.0010     0.0270 C           0 URE       0.663700
     24 O2           1.9500    -6.2940     1.1340 O           0 URE      -0.649350
     25 N1           2.4000    -5.6150    -0.9590 N           0 URE      -0.515400
     26 C18          3.7850    -5.2730    -0.5750 C          0 URE      -0.029050
     27 C19          4.0640    -3.8290    -1.0150 C          0 URE      -0.008300
     28 S1           5.1170    -3.0240     0.2200 S          0 URE      -0.281700
     29 C20          6.0230    -1.8500    -0.8200 C          0 URE       0.079000
     30 H1           5.5100    -1.7440    -1.7760 H          0 URE       0.098700
     31 C21          7.4400    -2.3750    -1.0610 C          0 URE      -0.170900
     32 C22          8.1760    -2.4530     0.2520 C           0 URE       0.594100
     33 C23          9.6380    -2.8200     0.2750 C          0 URE      -0.213600
     34 O3           7.5960    -2.2210     1.2850 O           0 URE      -0.569100
     35 S2           6.1180    -0.2310    -0.0080 S          0 URE      -0.281700
     36 C24          6.4880     0.8190    -1.4430 C          0 URE      -0.008300
     37 C25          6.9050     2.2160    -0.9660 C          0 URE      -0.029050
     38 N2           5.7380     3.1090    -1.1120 N           0 URE      -0.515400
     39 C26          5.6510     4.1630    -0.2490 C           0 URE       0.663700
     40 O4           6.5870     4.4660     0.4650 O           0 URE      -0.649350
     41 C27          4.3870     4.9210    -0.2090 C          0 URE      -0.123100
     42 C28          3.4200     4.7050    -1.1960 C          0 URE      -0.088250
     43 C29          2.1590     5.3180    -1.0820 C          0 URE      -0.040750
     44 C30          1.1670     5.1220    -2.0700 C          0 URE      -0.129750
     45 C31         -0.1170     5.5030    -1.8140 C          0 URE      -0.102750
     46 C32         -0.4540     6.1350    -0.6050 C          0 URE      -0.123100
     47 C33          0.5410     6.5320     0.2790 C          0 URE      -0.088250
     48 C34          1.8640     6.1220     0.0550 C          0 URE      -0.040750
     49 C35          2.9050     6.4380     0.9480 C          0 URE      -0.129750
     50 C36          4.1280     5.8590     0.8140 C          0 URE      -0.102750
     51 C37         -1.8640     6.2050    -0.1930 C           0 URE       0.663700
     52 O5          -2.2990     7.1710     0.4040 O           0 URE      -0.649350
     53 N3          -2.6690     5.1420    -0.5060 N           0 URE      -0.515400
     54 C38         -4.0970     5.3120    -0.1680 C          0 URE      -0.029050
     55 C39         -4.6190     3.9890     0.3860 C          0 URE      -0.008300
     56 S3          -5.4250     3.0420    -0.9360 S          0 URE      -0.281700
     57 C40         -4.2480     6.3930     0.8710 C           0 URE       0.912850
     58 O6          -4.9470     7.3660     0.6420 O           0 URE      -0.835550
     59 O7          -3.6720     6.2950     1.9410 O           0 URE      -0.835550
     60 C41          7.3240     2.1570     0.4800 C           0 URE       0.912850
     61 O8           8.4880     1.9380     0.7690 O           0 URE      -0.835550
     62 O9           6.5000     2.3280     1.3620 O           0 URE      -0.835550
     63 C42          3.9410    -5.3880     0.9190 C           0 URE       0.912850
     64 O10          4.6760    -6.2380     1.3920 O           0 URE      -0.835550
     65 O11          3.3320    -4.6300     1.6560 O           0 URE      -0.835550
     66 C43         -8.9320    -2.5180     0.3240 C           0 URE       0.912850
     67 O12         -9.8910    -2.1990    -0.3580 O           0 URE      -0.835550
     68 O13         -9.1000    -3.1390     1.3600 O           0 URE      -0.835550
     69 H2          -2.3540     0.2980     1.6900 H          0 URE       0.075033
     70 H3          -3.0340     1.6450     2.6340 H          0 URE       0.075033
     71 H4          -3.6900     0.0020     2.8280 H          0 URE       0.075033
     72 H5          -6.1780     0.8440     1.9480 H          0 URE       0.071450
     73 H6          -5.4840     2.4830     1.9170 H          0 URE       0.071450
     74 H7          -6.3730    -0.8940     1.1990 H          0 URE       0.066950
     75 H8          -8.0440    -0.3370     0.9470 H          0 URE       0.066950
     76 H9          -7.4990    -2.1030    -1.2020 H          0 URE       0.079950
     77 H10         -6.4090    -3.2860     1.3210 H          0 URE       0.323250
     78 H11         -4.1480    -4.9340    -2.2750 H          0 URE       0.151750
     79 H12         -2.0020    -6.0580    -2.9450 H          0 URE       0.131500
     80 H13          0.3140    -6.5460    -2.3850 H          0 URE       0.149750
     81 H14         -0.4780    -5.8070     1.7610 H          0 URE       0.151750
     82 H15         -2.8560    -5.4860     2.4710 H          0 URE       0.131500
     83 H16         -5.0860    -4.7050     1.8920 H          0 URE       0.149750
     84 H17          2.1110    -5.5670    -1.8840 H          0 URE       0.323250
     85 H18          4.4820    -5.9490    -1.0710 H          0 URE       0.079950
     86 H19          4.5720    -3.8340    -1.9800 H          0 URE       0.066950
     87 H20          3.1230    -3.2860    -1.1010 H          0 URE       0.066950
     88 H21          7.3880    -3.3680    -1.5080 H          0 URE       0.071450
     89 H22          7.9680    -1.7000    -1.7340 H          0 URE       0.071450
     90 H23         10.2410    -1.9160     0.1980 H          0 URE       0.075033
     91 H24          9.8680    -3.3330     1.2080 H          0 URE       0.075033
     92 H25          9.8600    -3.4780    -0.5660 H          0 URE       0.075033
     93 H26          7.3010     0.3740    -2.0180 H          0 URE       0.066950
     94 H27          5.6010     0.8990    -2.0720 H          0 URE       0.066950
     95 H28          7.7300     2.5830    -1.5760 H          0 URE       0.079950
     96 H29          5.0640     2.9540    -1.7920 H          0 URE       0.323250
     97 H30          3.6400     4.0690    -2.0410 H          0 URE       0.151750
     98 H31          1.4240     4.6750    -3.0190 H          0 URE       0.131500
     99 H32         -0.8850     5.3160    -2.5500 H          0 URE       0.149750
    100 H33          0.2990     7.1510     1.1300 H          0 URE       0.151750
    101 H34          2.7310     7.1450     1.7460 H          0 URE       0.131500
    102 H35          4.9160     6.1210     1.5030 H          0 URE       0.149750
    103 H36         -2.3260     4.3350    -0.9210 H          0 URE       0.323250
    104 H37         -4.6570     5.5820    -1.0640 H          0 URE       0.079950
    105 H38         -3.7860     3.4110     0.7870 H          0 URE       0.066950
    106 H39         -5.3370     4.1880     1.1820 H          0 URE       0.066950
@<TRIPOS>BOND
     1     1     2 1   
     2     1    69 1   
     3     1    70 1   
     4     1    71 1   
     5     2     3 2   
     6     2     4 1   
     7     4     5 1   
     8     4    72 1   
     9     4    73 1   
    10     5     6 1   
    11     5     7 1   
    12     5    56 1   
    13     7     8 1   
    14     8     9 1   
    15     8    74 1   
    16     8    75 1   
    17     9    10 1   
    18     9    66 1   
    19     9    76 1   
    20    10    11 1   
    21    10    77 1   
    22    11    12 2   
    23    11    13 1   
    24    13    14 ar  
    25    13    22 ar  
    26    14    15 ar  
    27    14    78 1   
    28    15    16 ar  
    29    15    20 ar  
    30    16    17 ar  
    31    16    79 1   
    32    17    18 ar  
    33    17    80 1   
    34    18    19 ar  
    35    18    23 1   
    36    19    20 ar  
    37    19    81 1   
    38    20    21 ar  
    39    21    22 ar  
    40    21    82 1   
    41    22    83 1   
    42    23    24 2   
    43    23    25 1   
    44    25    26 1   
    45    25    84 1   
    46    26    27 1   
    47    26    63 1   
    48    26    85 1   
    49    27    28 1   
    50    27    86 1   
    51    27    87 1   
    52    28    29 1   
    53    29    30 1   
    54    29    31 1   
    55    29    35 1   
    56    31    32 1   
    57    31    88 1   
    58    31    89 1   
    59    32    33 1   
    60    32    34 2   
    61    33    90 1   
    62    33    91 1   
    63    33    92 1   
    64    35    36 1   
    65    36    37 1   
    66    36    93 1   
    67    36    94 1   
    68    37    38 1   
    69    37    60 1   
    70    37    95 1   
    71    38    39 1   
    72    38    96 1   
    73    39    40 2   
    74    39    41 1   
    75    41    42 ar  
    76    41    50 ar  
    77    42    43 ar  
    78    42    97 1   
    79    43    44 ar  
    80    43    48 ar  
    81    44    45 ar  
    82    44    98 1   
    83    45    46 ar  
    84    45    99 1   
    85    46    47 ar  
    86    46    51 1   
    87    47    48 ar  
    88    47   100 1   
    89    48    49 ar  
    90    49    50 ar  
    91    49   101 1   
    92    50   102 1   
    93    51    52 2   
    94    51    53 1   
    95    53    54 1   
    96    53   103 1   
    97    54    55 1   
    98    54    57 1   
    99    54   104 1   
   100    55    56 1   
   101    55   105 1   
   102    55   106 1   
   103    57    58 1   
   104    57    59 1   
   105    60    61 1   
   106    60    62 1   
   107    63    64 1   
   108    63    65 1   
   109    66    67 1   
   110    66    68 1   
@<TRIPOS>SUBSTRUCTURE
     1 URE         1 TEMP              0 ****  ****    0 ROOT
