@<TRIPOS>MOLECULE
71
   72    74     1     0     0
SMALL
bcc


@<TRIPOS>ATOM
      1 H           -3.0730     1.6910    -0.5450 H          0 71        0.311000
      2 N           -3.4930     2.4820    -0.1720 N           0 71       -0.571900
      3 C           -2.7200     3.6820     0.2230 C          0 71        0.090000
      4 C1          -1.4600     3.7640    -0.6420 C          0 71       -0.100900
      5 C2          -0.4840     4.7660    -0.0210 C          0 71       -0.076400
      6 C3           0.9250     4.5190    -0.5670 C          0 71       -0.076400
      7 C4           1.7290     3.7050     0.4500 C          0 71       -0.100900
      8 C5           3.2230     3.8270     0.1370 C          0 71        0.090000
      9 N1           3.8100     2.4720     0.1070 N           0 71       -0.571900
     10 H1           3.2560     1.6770     0.1170 H          0 71        0.311000
     11 C6           5.1680     2.3950     0.0640 C           0 71        0.669700
     12 O            5.8410     3.4070     0.0560 O           0 71       -0.598100
     13 C7           5.8160     1.0660     0.0270 C          0 71       -0.146600
     14 C8           7.2080     0.9700    -0.0230 C          0 71       -0.062000
     15 C9           7.8240    -0.2650    -0.0620 C          0 71       -0.142000
     16 C10          7.0590    -1.4140    -0.0480 C          0 71       -0.062000
     17 C11          5.6650    -1.3380     0.0080 C          0 71       -0.146600
     18 C12          5.0420    -0.0920     0.0430 C          0 71       -0.086000
     19 C13          4.8580    -2.5750     0.0260 C           0 71        0.669700
     20 O1           5.4000    -3.6600    -0.0550 O           0 71       -0.598100
     21 N2           3.5040    -2.4940     0.1360 N           0 71       -0.571900
     22 H2           3.0600    -1.6770     0.4110 H          0 71        0.311000
     23 C14          2.7480    -3.7220    -0.1880 C          0 71        0.090000
     24 C15          1.3550    -3.6230     0.4370 C          0 71       -0.100900
     25 C16          0.4810    -4.7680    -0.0820 C          0 71       -0.076400
     26 C17         -0.9470    -4.5960     0.4460 C          0 71       -0.076400
     27 C18         -1.7440    -3.7190    -0.5220 C          0 71       -0.100900
     28 C19         -3.2390    -3.8330    -0.2130 C          0 71        0.090000
     29 N3          -3.8060    -2.4660    -0.1530 N           0 71       -0.571900
     30 H3          -3.2470    -1.6740    -0.1770 H          0 71        0.311000
     31 C20         -5.1650    -2.3940    -0.0610 C           0 71        0.669700
     32 O2          -5.8370    -3.4080    -0.0400 O           0 71       -0.598100
     33 C21         -5.8100    -1.0660     0.0130 C          0 71       -0.146600
     34 C22         -7.1980    -0.9680     0.1260 C          0 71       -0.062000
     35 C23         -7.8090     0.2680     0.1980 C          0 71       -0.142000
     36 C24         -7.0430     1.4160     0.1610 C          0 71       -0.062000
     37 C25         -5.6530     1.3380     0.0490 C          0 71       -0.146600
     38 C26         -5.0350     0.0910    -0.0300 C          0 71       -0.086000
     39 C27         -4.8420     2.5740     0.0250 C           0 71        0.669700
     40 O3          -5.3690     3.6580     0.1820 O           0 71       -0.598100
     41 H4          -3.3270     4.5750     0.0710 H          0 71        0.059450
     42 H5          -2.4370     3.6060     1.2730 H          0 71        0.059450
     43 H6          -0.9900     2.7820    -0.6950 H          0 71        0.044075
     44 H7          -1.7300     4.0930    -1.6460 H          0 71        0.044075
     45 H8          -0.7970     5.7800    -0.2710 H          0 71        0.046200
     46 H9          -0.4800     4.6450     1.0620 H          0 71        0.046200
     47 H10          0.8590     3.9660    -1.5050 H          0 71        0.046200
     48 H11          1.4200     5.4740    -0.7410 H          0 71        0.046200
     49 H12          1.5360     4.0840     1.4530 H          0 71        0.044075
     50 H13          1.4310     2.6580     0.3940 H          0 71        0.044075
     51 H14          3.3550     4.3050    -0.8340 H          0 71        0.059450
     52 H15          3.7110     4.4210     0.9100 H          0 71        0.059450
     53 H16          7.8080     1.8690    -0.0320 H          0 71        0.158000
     54 H17          8.9010    -0.3320    -0.1050 H          0 71        0.146000
     55 H18          7.5410    -2.3800    -0.0800 H          0 71        0.158000
     56 H19          3.9650    -0.0240     0.0840 H          0 71        0.136000
     57 H20          2.6580    -3.8210    -1.2690 H          0 71        0.059450
     58 H21          3.2700    -4.5890     0.2180 H          0 71        0.059450
     59 H22          1.4370    -3.6910     1.5220 H          0 71        0.044075
     60 H23          0.9020    -2.6690     0.1660 H          0 71        0.044075
     61 H24          0.4710    -4.7530    -1.1720 H          0 71        0.046200
     62 H25          0.8850    -5.7190     0.2650 H          0 71        0.046200
     63 H26         -1.4240    -5.5730     0.5280 H          0 71        0.046200
     64 H27         -0.9170    -4.1220     1.4270 H          0 71        0.046200
     65 H28         -1.4290    -2.6810    -0.4120 H          0 71        0.044075
     66 H29         -1.5590    -4.0470    -1.5440 H          0 71        0.044075
     67 H30         -3.7340    -4.4020    -1.0000 H          0 71        0.059450
     68 H31         -3.3790    -4.3320     0.7460 H          0 71        0.059450
     69 H32         -7.7980    -1.8660     0.1560 H          0 71        0.158000
     70 H33         -8.8830     0.3370     0.2840 H          0 71        0.146000
     71 H34         -7.5220     2.3830     0.2180 H          0 71        0.158000
     72 H35         -3.9610     0.0230    -0.1220 H          0 71        0.136000
@<TRIPOS>BOND
     1     1     2 1   
     2     2     3 1   
     3     2    39 1   
     4     3     4 1   
     5     3    41 1   
     6     3    42 1   
     7     4     5 1   
     8     4    43 1   
     9     4    44 1   
    10     5     6 1   
    11     5    45 1   
    12     5    46 1   
    13     6     7 1   
    14     6    47 1   
    15     6    48 1   
    16     7     8 1   
    17     7    49 1   
    18     7    50 1   
    19     8     9 1   
    20     8    51 1   
    21     8    52 1   
    22     9    10 1   
    23     9    11 1   
    24    11    12 2   
    25    11    13 1   
    26    13    14 ar  
    27    13    18 ar  
    28    14    15 ar  
    29    14    53 1   
    30    15    16 ar  
    31    15    54 1   
    32    16    17 ar  
    33    16    55 1   
    34    17    18 ar  
    35    17    19 1   
    36    18    56 1   
    37    19    20 2   
    38    19    21 1   
    39    21    22 1   
    40    21    23 1   
    41    23    24 1   
    42    23    57 1   
    43    23    58 1   
    44    24    25 1   
    45    24    59 1   
    46    24    60 1   
    47    25    26 1   
    48    25    61 1   
    49    25    62 1   
    50    26    27 1   
    51    26    63 1   
    52    26    64 1   
    53    27    28 1   
    54    27    65 1   
    55    27    66 1   
    56    28    29 1   
    57    28    67 1   
    58    28    68 1   
    59    29    30 1   
    60    29    31 1   
    61    31    32 2   
    62    31    33 1   
    63    33    34 ar  
    64    33    38 ar  
    65    34    35 ar  
    66    34    69 1   
    67    35    36 ar  
    68    35    70 1   
    69    36    37 ar  
    70    36    71 1   
    71    37    38 ar  
    72    37    39 1   
    73    38    72 1   
    74    39    40 2   
@<TRIPOS>SUBSTRUCTURE
     1 71          1 TEMP              0 ****  ****    0 ROOT
