@<TRIPOS>MOLECULE
166
   96    99     1     0     0
SMALL
bcc


@<TRIPOS>ATOM
      1 C            6.1260    -3.1340    -0.5540 C          0 166      -0.118100
      2 C1           4.7030    -2.6900    -0.9100 C          0 166       0.115100
      3 H            4.5100    -2.9280    -1.9570 H          0 166       0.056700
      4 O            4.5770    -1.2870    -0.7150 O          0 166      -0.444600
      5 C2           5.2230    -0.6050    -1.7880 C          0 166       0.091400
      6 C3           6.1670     0.4560    -1.2160 C          0 166       0.117400
      7 O1           5.7260     1.7610    -1.5790 O          0 166      -0.407600
      8 C4           4.3650     1.9030    -1.1720 C          0 166       0.101400
      9 C5           4.2400     3.0020    -0.1170 C          0 166       0.132800
     10 C6           4.7980     4.3070    -0.6950 C          0 166      -0.081100
     11 C7           2.7600     3.2030     0.2260 C          0 166       0.100400
     12 O2           2.0540     3.5530    -0.9620 O          0 166      -0.327900
     13 C8           0.7200     3.5180    -0.7070 C          0 166       0.100100
     14 C9           0.2270     3.5910     0.5860 C          0 166      -0.149500
     15 C10         -1.1390     3.5830     0.8090 C          0 166      -0.137500
     16 C11         -2.0180     3.4980    -0.2610 C          0 166       0.087100
     17 O3          -3.3600     3.5220    -0.0440 O          0 166      -0.335900
     18 C12         -3.8120     2.1680     0.0130 C          0 166       0.124400
     19 C13         -5.1530     2.1150     0.7510 C          0 166       0.124400
     20 O4          -6.2160     2.2930    -0.1850 O          0 166      -0.438600
     21 C14         -7.4370     1.9940     0.4950 C          0 166       0.095400
     22 C15         -8.2200     0.9550    -0.3130 C          0 166       0.121400
     23 O5          -9.1080     0.2330     0.5320 O          0 166      -0.419600
     24 C16         -8.3470    -0.6820     1.3150 C          0 166       0.087400
     25 C17         -7.7890    -1.8050     0.4400 C          0 166       0.100400
     26 O6          -6.4280    -2.0510     0.8020 O          0 166      -0.425600
     27 C18         -5.6120    -1.5500    -0.2570 C          0 166       0.110400
     28 C19         -4.1590    -1.9850    -0.0330 C          0 166       0.126400
     29 O7          -3.8180    -2.9780    -0.9970 O          0 166      -0.329900
     30 C20         -2.4980    -3.2590    -0.8720 C          0 166       0.121100
     31 C21         -1.9900    -3.7280     0.3310 C          0 166      -0.164500
     32 C22         -0.6470    -4.0370     0.4420 C          0 166      -0.116000
     33 C23          0.1990    -3.8790    -0.6480 C          0 166       0.059100
     34 O8           1.5030    -4.2240    -0.5430 O          0 166      -0.342900
     35 C24          2.2750    -3.0440    -0.3130 C          0 166       0.101400
     36 C25          3.7200    -3.4550    -0.0310 C          0 166       0.142100
     37 O9           4.0470    -3.3160     1.3430 O          0 166      -0.410600
     38 C26          3.6980    -2.0160     1.8010 C          0 166       0.107400
     39 C27          4.9270    -1.3510     2.4350 C          0 166       0.089400
     40 O10          4.5180    -0.2410     3.2240 O          0 166      -0.417600
     41 C28          5.1780     0.9250     2.7260 C          0 166       0.130400
     42 C29          4.2440     1.6740     1.7710 C          0 166       0.077400
     43 O11          4.9860     2.6490     1.0460 O          0 166      -0.415600
     44 C30         -0.3070    -3.3830    -1.8400 C          0 166      -0.116000
     45 C31         -1.6460    -3.0760    -1.9520 C          0 166      -0.164500
     46 C32         -1.5250     3.3990    -1.5530 C          0 166      -0.137500
     47 C33         -0.1640     3.4100    -1.7750 C          0 166      -0.149500
     48 H1           6.3280    -2.9010     0.4910 H          0 166       0.047700
     49 H2           6.2220    -4.2080    -0.7130 H          0 166       0.047700
     50 H3           6.8390    -2.6080    -1.1890 H          0 166       0.047700
     51 H4           5.7860    -1.2990    -2.4070 H          0 166       0.043700
     52 H5           4.4690    -0.1180    -2.4150 H          0 166       0.043700
     53 H6           6.1940     0.3650    -0.1290 H          0 166       0.067700
     54 H7           7.1720     0.2930    -1.6100 H          0 166       0.067700
     55 H8           3.7620     2.1750    -2.0440 H          0 166       0.065700
     56 H9           3.9920     0.9660    -0.7660 H          0 166       0.065700
     57 H10          4.2320     4.5820    -1.5840 H          0 166       0.055367
     58 H11          4.7150     5.0990     0.0490 H          0 166       0.055367
     59 H12          5.8460     4.1670    -0.9600 H          0 166       0.055367
     60 H13          2.3530     2.2800     0.6360 H          0 166       0.047200
     61 H14          2.6740     4.0070     0.9580 H          0 166       0.047200
     62 H15          0.8960     3.6560     1.4300 H          0 166       0.145500
     63 H16         -1.5180     3.6390     1.8180 H          0 166       0.144500
     64 H17         -3.9440     1.7860    -0.9990 H          0 166       0.050700
     65 H18         -3.0800     1.5580     0.5390 H          0 166       0.050700
     66 H19         -5.2540     1.1520     1.2500 H          0 166       0.049200
     67 H20         -5.1850     2.9150     1.4930 H          0 166       0.049200
     68 H21         -7.2200     1.6060     1.4870 H          0 166       0.043700
     69 H22         -8.0310     2.9040     0.5860 H          0 166       0.043700
     70 H23         -8.7980     1.4710    -1.0860 H          0 166       0.062200
     71 H24         -7.5200     0.2760    -0.7990 H          0 166       0.062200
     72 H25         -7.5270    -0.1640     1.8090 H          0 166       0.064700
     73 H26         -8.9950    -1.1200     2.0810 H          0 166       0.064700
     74 H27         -8.3740    -2.7130     0.6060 H          0 166       0.058700
     75 H28         -7.8510    -1.5250    -0.6090 H          0 166       0.058700
     76 H29         -5.9620    -1.9550    -1.2080 H          0 166       0.057700
     77 H30         -5.6670    -0.4630    -0.2820 H          0 166       0.057700
     78 H31         -3.5010    -1.1230    -0.1420 H          0 166       0.053200
     79 H32         -4.0590    -2.3960     0.9710 H          0 166       0.053200
     80 H33         -2.6430    -3.8550     1.1830 H          0 166       0.147000
     81 H34         -0.2530    -4.4010     1.3800 H          0 166       0.145500
     82 H35          2.2380    -2.4090    -1.2000 H          0 166       0.049200
     83 H36          1.8650    -2.5050     0.5410 H          0 166       0.049200
     84 H37          3.8140    -4.5280    -0.2900 H          0 166       0.094700
     85 H38          3.3410    -1.3980     0.9810 H          0 166       0.052200
     86 H39          2.9100    -2.0980     2.5550 H          0 166       0.052200
     87 H40          5.4400    -2.0810     3.0640 H          0 166       0.064200
     88 H41          5.6010    -1.0200     1.6470 H          0 166       0.064200
     89 H42          5.4320     1.5790     3.5640 H          0 166       0.060200
     90 H43          6.0880     0.6450     2.2060 H          0 166       0.060200
     91 H44          3.7920     0.9590     1.0830 H          0 166       0.041700
     92 H45          3.4610     2.1650     2.3510 H          0 166       0.041700
     93 H46          0.3520    -3.2360    -2.6860 H          0 166       0.145500
     94 H47         -2.0380    -2.6910    -2.8850 H          0 166       0.147000
     95 H48         -2.2080     3.3180    -2.3850 H          0 166       0.144500
     96 H49          0.2210     3.3270    -2.7800 H          0 166       0.145500
@<TRIPOS>BOND
     1     1     2 1   
     2     1    48 1   
     3     1    49 1   
     4     1    50 1   
     5     2     3 1   
     6     2     4 1   
     7     2    36 1   
     8     4     5 1   
     9     5     6 1   
    10     5    51 1   
    11     5    52 1   
    12     6     7 1   
    13     6    53 1   
    14     6    54 1   
    15     7     8 1   
    16     8     9 1   
    17     8    55 1   
    18     8    56 1   
    19     9    10 1   
    20     9    11 1   
    21     9    43 1   
    22    10    57 1   
    23    10    58 1   
    24    10    59 1   
    25    11    12 1   
    26    11    60 1   
    27    11    61 1   
    28    12    13 1   
    29    13    14 ar  
    30    13    47 ar  
    31    14    15 ar  
    32    14    62 1   
    33    15    16 ar  
    34    15    63 1   
    35    16    17 1   
    36    16    46 ar  
    37    17    18 1   
    38    18    19 1   
    39    18    64 1   
    40    18    65 1   
    41    19    20 1   
    42    19    66 1   
    43    19    67 1   
    44    20    21 1   
    45    21    22 1   
    46    21    68 1   
    47    21    69 1   
    48    22    23 1   
    49    22    70 1   
    50    22    71 1   
    51    23    24 1   
    52    24    25 1   
    53    24    72 1   
    54    24    73 1   
    55    25    26 1   
    56    25    74 1   
    57    25    75 1   
    58    26    27 1   
    59    27    28 1   
    60    27    76 1   
    61    27    77 1   
    62    28    29 1   
    63    28    78 1   
    64    28    79 1   
    65    29    30 1   
    66    30    31 ar  
    67    30    45 ar  
    68    31    32 ar  
    69    31    80 1   
    70    32    33 ar  
    71    32    81 1   
    72    33    34 1   
    73    33    44 ar  
    74    34    35 1   
    75    35    36 1   
    76    35    82 1   
    77    35    83 1   
    78    36    37 1   
    79    36    84 1   
    80    37    38 1   
    81    38    39 1   
    82    38    85 1   
    83    38    86 1   
    84    39    40 1   
    85    39    87 1   
    86    39    88 1   
    87    40    41 1   
    88    41    42 1   
    89    41    89 1   
    90    41    90 1   
    91    42    43 1   
    92    42    91 1   
    93    42    92 1   
    94    44    45 ar  
    95    44    93 1   
    96    45    94 1   
    97    46    47 ar  
    98    46    95 1   
    99    47    96 1   
@<TRIPOS>SUBSTRUCTURE
     1 166         1 TEMP              0 ****  ****    0 ROOT
