@<TRIPOS>MOLECULE
125
   69    72     1     0     0
SMALL
bcc


@<TRIPOS>ATOM
      1 O            2.3260     4.0710     0.5740 O           0 125      -0.604767
      2 C            2.4600     3.5750    -0.5240 C           0 125       0.656100
      3 C1           3.7700     2.9360    -0.9070 C          0 125      -0.112433
      4 C2           3.7470     1.4760    -0.5340 C          0 125      -0.087300
      5 C3           3.7580     1.1030     0.7970 C          0 125      -0.111667
      6 C4           3.7400    -0.2360     1.1390 C          0 125      -0.087300
      7 C5           3.7080    -1.2020     0.1510 C          0 125      -0.111667
      8 C6           3.6960    -0.8280    -1.1800 C          0 125      -0.087300
      9 C7           3.6630    -1.8810    -2.2580 C          0 125      -0.112433
     10 C8           2.3450    -2.6110    -2.2080 C           0 125       0.656100
     11 O1           2.1760    -3.5010    -1.4030 O           0 125      -0.604767
     12 N            1.3560    -2.2750    -3.0570 N           0 125      -0.560900
     13 C9           0.0740    -2.9800    -3.0170 C          0 125       0.092000
     14 C10         -0.9770    -2.0940    -2.3440 C          0 125      -0.050633
     15 S           -2.3340    -3.1280    -1.7290 S          0 125      -0.276533
     16 C11         -3.7400    -2.0290    -2.0540 C          0 125       0.026667
     17 C12         -3.7210    -0.8850    -1.0730 C          0 125      -0.090300
     18 C13         -3.7280     0.4190    -1.5330 C          0 125      -0.110333
     19 C14         -3.7110     1.4680    -0.6330 C          0 125      -0.090300
     20 C15         -3.7180     2.8890    -1.1330 C          0 125       0.026667
     21 S1          -2.4360     3.8410    -0.2720 S          0 125      -0.276533
     22 C16         -0.9540     3.1760    -1.0800 C          0 125      -0.050633
     23 C17          0.1620     4.2220    -1.0370 C          0 125       0.092000
     24 N1           1.4350     3.5900    -1.3970 N           0 125      -0.560900
     25 C18         -3.6860     1.2140     0.7260 C          0 125      -0.110333
     26 C19         -3.6800    -0.0900     1.1850 C          0 125      -0.090300
     27 C20         -3.6540    -0.3680     2.6660 C          0 125       0.026667
     28 S2          -2.3470    -1.5700     3.0340 S          0 125      -0.276533
     29 C21         -0.9100    -0.4650     3.0950 C          0 125      -0.050633
     30 C22          0.1980    -1.1150     3.9250 C          0 125       0.092000
     31 N2           1.4880    -0.5180     3.5710 N           0 125      -0.560900
     32 C23          2.4290    -1.2590     2.9550 C           0 125       0.656100
     33 O2           2.2090    -2.4220     2.6930 O           0 125      -0.604767
     34 C24          3.7560    -0.6440     2.5900 C          0 125      -0.112433
     35 C25         -3.6970    -1.1400     0.2850 C          0 125      -0.110333
     36 C26          3.7160     0.5110    -1.5220 C          0 125      -0.111667
     37 H            3.9210     3.0340    -1.9820 H          0 125       0.082033
     38 H1           4.5840     3.4330    -0.3800 H          0 125       0.082033
     39 H2           3.7820     1.8570     1.5700 H          0 125       0.147333
     40 H3           3.6920    -2.2480     0.4180 H          0 125       0.147333
     41 H4           3.7790    -1.4070    -3.2330 H          0 125       0.082033
     42 H5           4.4760    -2.5890    -2.0990 H          0 125       0.082033
     43 H6           1.4930    -1.5610    -3.6990 H          0 125       0.310167
     44 H7          -0.2440    -3.2130    -4.0330 H          0 125       0.074533
     45 H8           0.1850    -3.9040    -2.4510 H          0 125       0.074533
     46 H9          -0.5220    -1.5590    -1.5120 H          0 125       0.071867
     47 H10         -1.3660    -1.3780    -3.0680 H          0 125       0.071867
     48 H11         -3.6690    -1.6390    -3.0690 H          0 125       0.082367
     49 H12         -4.6700    -2.5870    -1.9440 H          0 125       0.082367
     50 H13         -3.7460     0.6170    -2.5940 H          0 125       0.149667
     51 H14         -3.5180     2.8980    -2.2050 H          0 125       0.082367
     52 H15         -4.6930     3.3370    -0.9420 H          0 125       0.082367
     53 H16         -0.6290     2.2760    -0.5580 H          0 125       0.071867
     54 H17         -1.1840     2.9330    -2.1170 H          0 125       0.071867
     55 H18         -0.0620     5.0220    -1.7420 H          0 125       0.074533
     56 H19          0.2340     4.6350    -0.0310 H          0 125       0.074533
     57 H20          1.5410     3.1850    -2.2720 H          0 125       0.310167
     58 H21         -3.6720     2.0340     1.4280 H          0 125       0.149667
     59 H22         -3.4580     0.5590     3.2050 H          0 125       0.082367
     60 H23         -4.6180    -0.7720     2.9760 H          0 125       0.082367
     61 H24         -0.5470    -0.2850     2.0830 H          0 125       0.071867
     62 H25         -1.1990     0.4820     3.5510 H          0 125       0.071867
     63 H26          0.0010    -0.9520     4.9850 H          0 125       0.074533
     64 H27          0.2250    -2.1850     3.7210 H          0 125       0.074533
     65 H28          1.6640     0.4130     3.7810 H          0 125       0.310167
     66 H29          4.5510    -1.3710     2.7540 H          0 125       0.082033
     67 H30          3.9320     0.2340     3.2120 H          0 125       0.082033
     68 H31         -3.6920    -2.1590     0.6430 H          0 125       0.149667
     69 H32          3.7060     0.8030    -2.5620 H          0 125       0.147333
@<TRIPOS>BOND
     1     1     2 2   
     2     2     3 1   
     3     2    24 1   
     4     3     4 1   
     5     3    37 1   
     6     3    38 1   
     7     4     5 ar  
     8     4    36 ar  
     9     5     6 ar  
    10     5    39 1   
    11     6     7 ar  
    12     6    34 1   
    13     7     8 ar  
    14     7    40 1   
    15     8     9 1   
    16     8    36 ar  
    17     9    10 1   
    18     9    41 1   
    19     9    42 1   
    20    10    11 2   
    21    10    12 1   
    22    12    13 1   
    23    12    43 1   
    24    13    14 1   
    25    13    44 1   
    26    13    45 1   
    27    14    15 1   
    28    14    46 1   
    29    14    47 1   
    30    15    16 1   
    31    16    17 1   
    32    16    48 1   
    33    16    49 1   
    34    17    18 ar  
    35    17    35 ar  
    36    18    19 ar  
    37    18    50 1   
    38    19    20 1   
    39    19    25 ar  
    40    20    21 1   
    41    20    51 1   
    42    20    52 1   
    43    21    22 1   
    44    22    23 1   
    45    22    53 1   
    46    22    54 1   
    47    23    24 1   
    48    23    55 1   
    49    23    56 1   
    50    24    57 1   
    51    25    26 ar  
    52    25    58 1   
    53    26    27 1   
    54    26    35 ar  
    55    27    28 1   
    56    27    59 1   
    57    27    60 1   
    58    28    29 1   
    59    29    30 1   
    60    29    61 1   
    61    29    62 1   
    62    30    31 1   
    63    30    63 1   
    64    30    64 1   
    65    31    32 1   
    66    31    65 1   
    67    32    33 2   
    68    32    34 1   
    69    34    66 1   
    70    34    67 1   
    71    35    68 1   
    72    36    69 1   
@<TRIPOS>SUBSTRUCTURE
     1 125         1 TEMP              0 ****  ****    0 ROOT
