@<TRIPOS>MOLECULE
74
   60    68     1     0     0
SMALL
bcc


@<TRIPOS>ATOM
      1 H           -6.8950    -3.6190     0.3580 H          0 74        0.136000
      2 C           -5.8800    -3.2560     0.2880 C          0 74       -0.160000
      3 C1          -5.6400    -1.8960     0.2420 C          0 74       -0.081000
      4 C2          -4.3360    -1.4180     0.1560 C          0 74        0.008000
      5 C3          -3.2600    -2.3180     0.1210 C          0 74       -0.022200
      6 N           -1.8960    -2.1450     0.0560 N          0 74       -0.180400
      7 C4          -1.2730    -3.3780     0.0280 C          0 74       -0.021100
      8 C5          -2.2150    -4.3550     0.0880 C          0 74       -0.142200
      9 C6          -3.5190    -3.7000     0.1560 C          0 74       -0.100800
     10 C7          -4.8370    -4.1530     0.2500 C          0 74       -0.069000
     11 C8           0.1830    -3.5790    -0.0480 C          0 74       -0.021100
     12 C9           0.8150    -4.7790    -0.1360 C          0 74       -0.142200
     13 C10          2.2510    -4.5080    -0.1850 C          0 74       -0.100800
     14 C11          3.3870    -5.3160    -0.2860 C          0 74       -0.069000
     15 C12          4.6430    -4.7490    -0.3000 C          0 74       -0.160000
     16 H1           5.5160    -5.3800    -0.3770 H          0 74        0.136000
     17 C13          4.7930    -3.3750    -0.2170 C          0 74       -0.081000
     18 C14          3.6730    -2.5510    -0.1180 C          0 74        0.008000
     19 C15          3.8410    -1.1300    -0.0290 C          0 74       -0.106000
     20 C16          4.0800     0.0080     0.1130 C          0 74       -0.106000
     21 C17          4.3350     1.4170     0.1610 C          0 74        0.008000
     22 C18          3.2600     2.3180     0.1220 C          0 74       -0.022200
     23 N1           1.8970     2.1440     0.0530 N          0 74       -0.180400
     24 C19          1.2730     3.3770     0.0240 C          0 74       -0.021100
     25 C20          2.2150     4.3540     0.0800 C          0 74       -0.142200
     26 C21          3.5190     3.7000     0.1510 C          0 74       -0.100800
     27 C22          4.8370     4.1540     0.2380 C          0 74       -0.069000
     28 C23          5.8810     3.2580     0.2870 C          0 74       -0.160000
     29 H2           6.8960     3.6210     0.3560 H          0 74        0.136000
     30 C24          5.6400     1.8950     0.2490 C          0 74       -0.081000
     31 C25         -0.1830     3.5780    -0.0510 C          0 74       -0.021100
     32 C26         -0.8150     4.7790    -0.1320 C          0 74       -0.142200
     33 C27         -2.2510     4.5090    -0.1800 C          0 74       -0.100800
     34 C28         -2.3860     3.1110    -0.1160 C          0 74       -0.022200
     35 N2          -1.1250     2.5690    -0.0460 N          0 74       -0.180400
     36 C29         -3.6730     2.5520    -0.1300 C          0 74        0.008000
     37 C30         -4.7940     3.3770    -0.2180 C          0 74       -0.081000
     38 C31         -4.6420     4.7490    -0.2870 C          0 74       -0.160000
     39 H3          -5.5140     5.3820    -0.3570 H          0 74        0.136000
     40 C32         -3.3870     5.3160    -0.2690 C          0 74       -0.069000
     41 C33         -3.8400     1.1300    -0.0500 C          0 74       -0.106000
     42 C34         -4.0810    -0.0090     0.0980 C          0 74       -0.106000
     43 C35          2.3880    -3.1110    -0.1110 C          0 74       -0.022200
     44 N3           1.1250    -2.5700    -0.0410 N          0 74       -0.180400
     45 H4          -6.4670    -1.2020     0.2740 H          0 74        0.140000
     46 H5          -1.4420    -1.2880     0.0320 H          0 74        0.296700
     47 H6          -2.0330    -5.4200     0.0860 H          0 74        0.164000
     48 H7          -5.0380    -5.2130     0.2910 H          0 74        0.139000
     49 H8           0.3450    -5.7510    -0.1640 H          0 74        0.164000
     50 H9           3.2800    -6.3880    -0.3520 H          0 74        0.139000
     51 H10          5.7820    -2.9400    -0.2280 H          0 74        0.140000
     52 H11          1.4430     1.2870     0.0280 H          0 74        0.296700
     53 H12          2.0330     5.4190     0.0730 H          0 74        0.164000
     54 H13          5.0380     5.2140     0.2660 H          0 74        0.139000
     55 H14          6.4670     1.2010     0.2890 H          0 74        0.140000
     56 H15         -0.3450     5.7510    -0.1570 H          0 74        0.164000
     57 H16         -0.9260     1.6210    -0.0000 H          0 74        0.296700
     58 H17         -5.7830     2.9430    -0.2320 H          0 74        0.140000
     59 H18         -3.2820     6.3900    -0.3230 H          0 74        0.139000
     60 H19          0.9260    -1.6220     0.0060 H          0 74        0.296700
@<TRIPOS>BOND
     1     1     2 1   
     2     2     3 ar  
     3     2    10 ar  
     4     3     4 ar  
     5     3    45 1   
     6     4     5 ar  
     7     4    42 1   
     8     5     6 1   
     9     5     9 ar  
    10     6     7 1   
    11     6    46 1   
    12     7     8 2   
    13     7    11 1   
    14     8     9 1   
    15     8    47 1   
    16     9    10 ar  
    17    10    48 1   
    18    11    12 2   
    19    11    44 1   
    20    12    13 1   
    21    12    49 1   
    22    13    14 ar  
    23    13    43 ar  
    24    14    15 ar  
    25    14    50 1   
    26    15    16 1   
    27    15    17 ar  
    28    17    18 ar  
    29    17    51 1   
    30    18    19 1   
    31    18    43 ar  
    32    19    20 3   
    33    20    21 1   
    34    21    22 ar  
    35    21    30 ar  
    36    22    23 1   
    37    22    26 ar  
    38    23    24 1   
    39    23    52 1   
    40    24    25 2   
    41    24    31 1   
    42    25    26 1   
    43    25    53 1   
    44    26    27 ar  
    45    27    28 ar  
    46    27    54 1   
    47    28    29 1   
    48    28    30 ar  
    49    30    55 1   
    50    31    32 2   
    51    31    35 1   
    52    32    33 1   
    53    32    56 1   
    54    33    34 ar  
    55    33    40 ar  
    56    34    35 1   
    57    34    36 ar  
    58    35    57 1   
    59    36    37 ar  
    60    36    41 1   
    61    37    38 ar  
    62    37    58 1   
    63    38    39 1   
    64    38    40 ar  
    65    40    59 1   
    66    41    42 3   
    67    43    44 1   
    68    44    60 1   
@<TRIPOS>SUBSTRUCTURE
     1 74          1 TEMP              0 ****  ****    0 ROOT
