@<TRIPOS>MOLECULE
10
   72    78     1     0     0
SMALL
bcc


@<TRIPOS>ATOM
      1 C1           4.7420    -0.7490    -0.7180 C          1 10       -0.096000
      2 C2           4.7110     0.6340    -0.9500 C          1 10       -0.096000
      3 C3           5.0040     1.5440     0.0770 C          1 10       -0.127300
      4 C4           5.3660     1.0320     1.3310 C          1 10       -0.096000
      5 C5           5.3970    -0.3520     1.5640 C          1 10       -0.096000
      6 C6           5.0670    -1.2610     0.5470 C          1 10       -0.127300
      7 C7           5.0230    -2.7570     0.8210 C          1 10        0.036600
      8 N1           3.5970    -3.2030     0.8780 N          1 10        0.045900
      9 C8           2.8330    -2.8500     1.9360 C          1 10       -0.009800
     10 C9           1.4530    -3.0570     1.9190 C          1 10       -0.126500
     11 C10          0.8250    -3.6640     0.8210 C          1 10        0.041000
     12 C11          1.6740    -4.1300    -0.1940 C          1 10       -0.126500
     13 C12          3.0540    -3.8940    -0.1490 C          1 10       -0.009800
     14 C13         -0.6590    -3.7160     0.7100 C          1 10        0.041000
     15 C14         -1.3040    -3.5290    -0.5220 C          1 10       -0.126500
     16 C15         -2.6930    -3.3990    -0.5960 C          1 10       -0.009800
     17 N2          -3.4480    -3.4210     0.5250 N          1 10        0.045900
     18 C16         -2.8830    -3.7150     1.7180 C          1 10       -0.009800
     19 C17         -1.4940    -3.8620     1.8270 C          1 10       -0.126500
     20 C18         -4.8920    -3.0440     0.4440 C          1 10        0.036600
     21 C19         -5.0040    -1.5440     0.2150 C          1 10       -0.127300
     22 C20         -5.3660    -1.0320    -1.0400 C          1 10       -0.096000
     23 C21         -5.3970     0.3520    -1.2720 C          1 10       -0.096000
     24 C22         -5.0670     1.2610    -0.2560 C          1 10       -0.127300
     25 C23         -4.7420     0.7490     1.0100 C          1 10       -0.096000
     26 C24         -4.7110    -0.6340     1.2420 C          1 10       -0.096000
     27 C25         -5.0230     2.7570    -0.5290 C          1 10        0.036600
     28 N3          -3.5970     3.2030    -0.5860 N          1 10        0.045900
     29 C26         -3.0540     3.8940     0.4410 C          1 10       -0.009800
     30 C27         -1.6740     4.1300     0.4860 C          1 10       -0.126500
     31 C28         -0.8250     3.6640    -0.5290 C          1 10        0.041000
     32 C29         -1.4530     3.0570    -1.6270 C          1 10       -0.126500
     33 C30         -2.8330     2.8500    -1.6440 C          1 10       -0.009800
     34 C31          0.6590     3.7160    -0.4180 C          1 10        0.041000
     35 C32          1.4940     3.8620    -1.5350 C          1 10       -0.126500
     36 C33          2.8830     3.7150    -1.4260 C          1 10       -0.009800
     37 N4           3.4480     3.4210    -0.2330 N          1 10        0.045900
     38 C34          2.6930     3.3990     0.8880 C          1 10       -0.009800
     39 C35          1.3040     3.5290     0.8130 C          1 10       -0.126500
     40 C36          4.8920     3.0440    -0.1520 C          1 10        0.036600
     41 H1           4.5240    -1.4180    -1.5510 H          1 10        0.164000
     42 H2           4.4700     0.9840    -1.9540 H          1 10        0.164000
     43 H3           5.6450     1.6990     2.1490 H          1 10        0.164000
     44 H4           5.6990    -0.7030     2.5520 H          1 10        0.164000
     45 H5           5.4820    -3.0160     1.7810 H          1 10        0.135200
     46 H6           5.5420    -3.3130     0.0330 H          1 10        0.135200
     47 H7           3.3260    -2.3560     2.7700 H          1 10        0.230000
     48 H8           0.8760    -2.6920     2.7670 H          1 10        0.206500
     49 H9           1.2780    -4.6700    -1.0540 H          1 10        0.206500
     50 H10          3.7160    -4.2220    -0.9480 H          1 10        0.230000
     51 H11         -0.7380    -3.4350    -1.4470 H          1 10        0.206500
     52 H12         -3.2000    -3.2260    -1.5420 H          1 10        0.230000
     53 H13         -3.5350    -3.7930     2.5840 H          1 10        0.230000
     54 H14         -1.0800    -4.0750     2.8130 H          1 10        0.206500
     55 H15         -5.3320    -3.6220    -0.3760 H          1 10        0.135200
     56 H16         -5.3920    -3.3340     1.3740 H          1 10        0.135200
     57 H17         -5.6450    -1.6990    -1.8570 H          1 10        0.164000
     58 H18         -5.6990     0.7030    -2.2600 H          1 10        0.164000
     59 H19         -4.5240     1.4180     1.8430 H          1 10        0.164000
     60 H20         -4.4700    -0.9840     2.2460 H          1 10        0.164000
     61 H21         -5.5420     3.3130     0.2590 H          1 10        0.135200
     62 H22         -5.4820     3.0160    -1.4890 H          1 10        0.135200
     63 H23         -3.7160     4.2220     1.2400 H          1 10        0.230000
     64 H24         -1.2780     4.6700     1.3450 H          1 10        0.206500
     65 H25         -0.8760     2.6920    -2.4750 H          1 10        0.206500
     66 H26         -3.3260     2.3560    -2.4780 H          1 10        0.230000
     67 H27          1.0800     4.0750    -2.5210 H          1 10        0.206500
     68 H28          3.5350     3.7930    -2.2930 H          1 10        0.230000
     69 H29          3.2000     3.2270     1.8330 H          1 10        0.230000
     70 H30          0.7380     3.4350     1.7390 H          1 10        0.206500
     71 H31          5.3920     3.3340    -1.0820 H          1 10        0.135200
     72 H32          5.3320     3.6220     0.6680 H          1 10        0.135200
@<TRIPOS>BOND
     1     1     2 ar  
     2     1     6 ar  
     3     1    41 1   
     4     2     3 ar  
     5     2    42 1   
     6     3     4 ar  
     7     3    40 1   
     8     4     5 ar  
     9     4    43 1   
    10     5     6 ar  
    11     5    44 1   
    12     6     7 1   
    13     7     8 1   
    14     7    45 1   
    15     7    46 1   
    16     8     9 1   
    17     8    13 1   
    18     9    10 2   
    19     9    47 1   
    20    10    11 1   
    21    10    48 1   
    22    11    12 1   
    23    11    14 2   
    24    12    13 2   
    25    12    49 1   
    26    13    50 1   
    27    14    15 1   
    28    14    19 1   
    29    15    16 2   
    30    15    51 1   
    31    16    17 1   
    32    16    52 1   
    33    17    18 1   
    34    17    20 1   
    35    18    19 2   
    36    18    53 1   
    37    19    54 1   
    38    20    21 1   
    39    20    55 1   
    40    20    56 1   
    41    21    22 ar  
    42    21    26 ar  
    43    22    23 ar  
    44    22    57 1   
    45    23    24 ar  
    46    23    58 1   
    47    24    25 ar  
    48    24    27 1   
    49    25    26 ar  
    50    25    59 1   
    51    26    60 1   
    52    27    28 1   
    53    27    61 1   
    54    27    62 1   
    55    28    29 1   
    56    28    33 1   
    57    29    30 2   
    58    29    63 1   
    59    30    31 1   
    60    30    64 1   
    61    31    32 1   
    62    31    34 2   
    63    32    33 2   
    64    32    65 1   
    65    33    66 1   
    66    34    35 1   
    67    34    39 1   
    68    35    36 2   
    69    35    67 1   
    70    36    37 1   
    71    36    68 1   
    72    37    38 1   
    73    37    40 1   
    74    38    39 2   
    75    38    69 1   
    76    39    70 1   
    77    40    71 1   
    78    40    72 1   
@<TRIPOS>SUBSTRUCTURE
     1 10          1 TEMP              0 ****  ****    0 ROOT
