@<TRIPOS>MOLECULE
REO
  492   498     1     0     0
SMALL
bcc


@<TRIPOS>ATOM
      1 H           -2.0300    -9.6740     1.2600 H          0 REO       0.300167
      2 N           -2.1120    -9.6080     0.2960 N           0 REO      -0.558567
      3 C           -1.6970    -8.4950    -0.3410 C           0 REO       0.670033
      4 O           -1.8000    -8.4120    -1.5500 O           0 REO      -0.600767
      5 C1          -1.1180    -7.3770     0.4290 C          0 REO      -0.098267
      6 C2          -0.6870    -6.2230    -0.2280 C          0 REO      -0.070000
      7 H1          -0.7790    -6.1480    -1.3010 H          0 REO       0.170000
      8 C3          -0.1410    -5.1730     0.4950 C          0 REO       0.003600
      9 C4          -0.0520    -5.2600     1.8840 C          0 REO       0.022267
     10 N1           0.4440    -4.2170     2.6600 N           0 REO      -0.466100
     11 H2           0.8760    -3.4620     2.2300 H          0 REO       0.314833
     12 C5           0.3310    -4.2440     3.9940 C           0 REO       0.735100
     13 O1          -0.2510    -5.1790     4.5080 O           0 REO      -0.617100
     14 N2           0.8290    -3.2920     4.7860 N           0 REO      -0.546900
     15 H3           1.6610    -2.8560     4.5420 H          0 REO       0.297167
     16 C6           0.1420    -2.8940     6.0150 C          0 REO       0.124633
     17 H4          -0.8940    -3.2280     5.9770 H          0 REO       0.054700
     18 H5           0.6400    -3.3460     6.8720 H          0 REO       0.054700
     19 C7           0.1830    -1.3930     6.1420 C          0 REO      -0.095967
     20 C8           1.3930    -0.7360     6.2520 C          0 REO      -0.036300
     21 C9           1.4360     0.6400     6.3620 C          0 REO      -0.095967
     22 C10          0.2590     1.3680     6.3610 C          0 REO      -0.036300
     23 C11         -0.9490     0.7110     6.2300 C          0 REO      -0.095967
     24 C12         -0.9930    -0.6670     6.1370 C          0 REO      -0.036300
     25 C13         -2.3190    -1.3760     6.0310 C          0 REO      -0.049433
     26 H6          -3.0640    -0.6930     5.6220 H          0 REO       0.055533
     27 H7          -2.2180    -2.2390     5.3730 H          0 REO       0.055533
     28 C14         -2.7610    -1.8410     7.4200 C          0 REO      -0.091100
     29 H8          -3.7600    -2.2740     7.3570 H          0 REO       0.036922
     30 H9          -2.0630    -2.5910     7.7910 H          0 REO       0.036922
     31 H10         -2.7760    -0.9900     8.1000 H          0 REO       0.036922
     32 C15         -2.2310     1.5020     6.1210 C          0 REO       0.124633
     33 H11         -2.9580     1.1300     6.8430 H          0 REO       0.054700
     34 H12         -2.0320     2.5570     6.3080 H          0 REO       0.054700
     35 N3          -2.7480     1.3280     4.7610 N           0 REO      -0.546900
     36 H13         -2.7580     0.4320     4.3880 H          0 REO       0.297167
     37 C16         -3.2030     2.3200     4.0110 C           0 REO       0.735100
     38 O2          -3.5360     3.3240     4.6110 O           0 REO      -0.617100
     39 N4          -3.3400     2.3650     2.7160 N           0 REO      -0.466100
     40 H14         -2.7980     1.7520     2.1960 H          0 REO       0.314833
     41 C17         -4.1860     3.2030     2.0130 C          0 REO       0.022267
     42 C18         -5.0340     4.0630     2.7080 C          0 REO      -0.103000
     43 H15         -5.0200     4.0650     3.7880 H          0 REO       0.148333
     44 C19         -5.8890     4.9090     2.0390 C          0 REO      -0.104000
     45 H16         -6.5350     5.5750     2.5920 H          0 REO       0.154667
     46 C20         -5.9170     4.9040     0.6420 C          0 REO      -0.098267
     47 C21         -5.0800     4.0330    -0.0600 C          0 REO      -0.070000
     48 H17         -5.1060     4.0210    -1.1390 H          0 REO       0.170000
     49 C22         -4.2180     3.1850     0.6120 C          0 REO       0.003600
     50 N5          -3.4160     2.3110    -0.1290 N           0 REO      -0.448767
     51 H18         -2.9420     1.5900     0.3150 H          0 REO       0.299833
     52 C23         -3.3060     2.4730    -1.4590 C           0 REO       0.738433
     53 O3          -3.7540     3.4800    -1.9720 O           0 REO      -0.628100
     54 N6          -2.7150     1.5540    -2.2330 N           0 REO      -0.545567
     55 H19         -2.8090     0.6180    -1.9960 H          0 REO       0.289167
     56 C24         -1.9350     1.9010    -3.4180 C          0 REO       0.124300
     57 H20         -2.5330     1.7220    -4.3110 H          0 REO       0.058200
     58 H21         -1.6560     2.9540    -3.3730 H          0 REO       0.058200
     59 C25         -0.6880     1.0550    -3.4710 C          0 REO      -0.087633
     60 C26         -0.7970    -0.3190    -3.5660 C          0 REO      -0.042633
     61 C27          0.3370    -1.0990    -3.5790 C          0 REO      -0.087633
     62 C28          1.5910    -0.5170    -3.5260 C          0 REO      -0.042633
     63 C29          1.7000     0.8550    -3.4080 C          0 REO      -0.087633
     64 C30          0.5620     1.6420    -3.4180 C          0 REO      -0.042633
     65 C31          0.6860     3.1430    -3.3710 C          0 REO      -0.047433
     66 H22         -0.1250     3.5560    -2.7720 H          0 REO       0.053200
     67 H23          1.6420     3.4150    -2.9230 H          0 REO       0.053200
     68 C32          0.6100     3.7070    -4.7910 C          0 REO      -0.096433
     69 H24          0.7000     4.7920    -4.7570 H          0 REO       0.039367
     70 H25          1.4220     3.2940    -5.3900 H          0 REO       0.039367
     71 H26         -0.3460     3.4350    -5.2390 H          0 REO       0.039367
     72 C33          3.0510     1.4900    -3.1660 C          0 REO       0.124300
     73 H27          3.8410     0.7780    -3.4040 H          0 REO       0.058200
     74 H28          3.1570     2.3800    -3.7870 H          0 REO       0.058200
     75 N7           3.1250     1.8610    -1.7480 N           0 REO      -0.545567
     76 H29          2.4730     2.4800    -1.3850 H          0 REO       0.289167
     77 C34          4.0780     1.3590    -0.9400 C           0 REO       0.738433
     78 O4           4.9980     0.7060    -1.3930 O           0 REO      -0.628100
     79 N8           3.9860     1.6020     0.3980 N           0 REO      -0.448767
     80 H30          3.1550     1.4800     0.8830 H          0 REO       0.299833
     81 C35          5.1610     2.0390     1.0390 C          0 REO       0.003600
     82 C36          6.3360     2.1250     0.3170 C          0 REO      -0.070000
     83 H31          6.3450     1.8570    -0.7300 H          0 REO       0.170000
     84 C37          7.5140     2.5570     0.9330 C          0 REO      -0.098267
     85 C38          7.4970     2.9130     2.2840 C          0 REO      -0.104000
     86 H32          8.4040     3.2470     2.7670 H          0 REO       0.154667
     87 C39          6.3230     2.8380     2.9980 C          0 REO      -0.103000
     88 H33          6.3120     3.1220     4.0400 H          0 REO       0.148333
     89 C40          5.1460     2.3980     2.3900 C          0 REO       0.022267
     90 N9           3.9690     2.3410     3.1340 N           0 REO      -0.466100
     91 H34          3.1200     2.5380     2.7090 H          0 REO       0.314833
     92 C41          4.0050     2.0160     4.4340 C           0 REO       0.735100
     93 O5           5.0350     1.5540     4.8850 O           0 REO      -0.617100
     94 N10          2.9680     2.1720     5.2580 N           0 REO      -0.546900
     95 H35          2.3180     2.8620     5.0510 H          0 REO       0.297167
     96 C42          2.7570     1.3600     6.4560 C          0 REO       0.124633
     97 H36          2.7570     2.0050     7.3350 H          0 REO       0.054700
     98 H37          3.5620     0.6300     6.5450 H          0 REO       0.054700
     99 C43          8.7690     2.6360     0.1610 C           0 REO       0.670033
    100 O6           8.7800     2.3250    -1.0140 O           0 REO      -0.600767
    101 N11          9.9030     3.0530     0.7590 N           0 REO      -0.558567
    102 H38          9.8940     3.3010     1.6960 H          0 REO       0.300167
    103 C44         11.1490     3.1320    -0.0080 C          0 REO       0.160733
    104 C45         12.2750     3.6300     0.9000 C          0 REO      -0.089844
    105 H39         12.0220     4.6180     1.2840 H          0 REO       0.066811
    106 H40         12.4040     2.9380     1.7320 H          0 REO       0.066811
    107 C46         13.5760     3.7120     0.0990 C          0 REO      -0.146289
    108 H41         13.8300     2.7240    -0.2850 H          0 REO       0.056367
    109 H42         13.4480     4.4040    -0.7330 H          0 REO       0.056367
    110 C47         14.6860     4.2030     0.9930 C           0 REO       0.658100
    111 O7          14.4580     4.4610     2.1560 O           0 REO      -0.635989
    112 N12         15.9310     4.3540     0.5010 N           0 REO      -0.554900
    113 H43         16.1130     4.1470    -0.4290 H          0 REO       0.291056
    114 C48         17.0100     4.8310     1.3700 C          0 REO       0.135289
    115 C49         18.3110     4.9130     0.5690 C          0 REO      -0.071659
    116 H44         18.5640     3.9250     0.1850 H          0 REO       0.049515
    117 H45         18.1830     5.6050    -0.2630 H          0 REO       0.049515
    118 C50         19.4380     5.4110     1.4770 C          0 REO      -0.174400
    119 H46         19.1850     6.3990     1.8610 H          0 REO       0.039293
    120 H47         19.5660     4.7200     2.3090 H          0 REO       0.039293
    121 C51         20.7200     5.4920     0.6880 C           0 REO       0.907193
    122 O8          20.7310     5.1800    -0.4900 O           0 REO      -0.897133
    123 O9          21.7450     5.8690     1.2290 O           0 REO      -0.897133
    124 C52         16.6550     6.2180     1.9090 C          0 REO      -0.071659
    125 H48         15.7780     6.1440     2.5520 H          0 REO       0.049515
    126 H49         17.4940     6.6110     2.4830 H          0 REO       0.049515
    127 C53         16.3520     7.1580     0.7400 C          0 REO      -0.174400
    128 H50         17.2290     7.2320     0.0970 H          0 REO       0.039293
    129 H51         15.5130     6.7650     0.1660 H          0 REO       0.039293
    130 C54         16.0020     8.5240     1.2710 C           0 REO       0.907193
    131 O10         15.9960     8.7270     2.4740 O           0 REO      -0.897133
    132 O11         15.7260     9.4260     0.4990 O           0 REO      -0.897133
    133 C55         17.1900     3.8600     2.5380 C          0 REO      -0.071659
    134 H52         17.9930     4.2150     3.1850 H          0 REO       0.049515
    135 H53         16.2630     3.8020     3.1090 H          0 REO       0.049515
    136 C56         17.5460     2.4730     1.9990 C          0 REO      -0.174400
    137 H54         16.7430     2.1180     1.3520 H          0 REO       0.039293
    138 H55         18.4730     2.5320     1.4290 H          0 REO       0.039293
    139 C57         17.7230     1.5170     3.1500 C           0 REO       0.907193
    140 O12         17.5790     1.9080     4.2960 O           0 REO      -0.897133
    141 O13         18.0110     0.3520     2.9360 O           0 REO      -0.897133
    142 C58         11.5040     1.7450    -0.5470 C          0 REO      -0.089844
    143 H56         10.7450     1.4280    -1.2620 H          0 REO       0.066811
    144 H57         12.4750     1.7850    -1.0410 H          0 REO       0.066811
    145 C59         11.5620     0.7470     0.6110 C          0 REO      -0.146289
    146 H58         12.3210     1.0640     1.3260 H          0 REO       0.056367
    147 H59         10.5910     0.7070     1.1050 H          0 REO       0.056367
    148 C60         11.9120    -0.6200     0.0800 C           0 REO       0.658100
    149 O14         12.0970    -0.7790    -1.1080 O           0 REO      -0.635989
    150 N13         12.0200    -1.6640     0.9250 N           0 REO      -0.554900
    151 H60         11.8720    -1.5360     1.8750 H          0 REO       0.291056
    152 C61         12.3600    -2.9920     0.4080 C          0 REO       0.135289
    153 C62         12.4180    -3.9900     1.5660 C          0 REO      -0.071659
    154 H61         13.1770    -3.6730     2.2820 H          0 REO       0.049515
    155 H62         11.4470    -4.0300     2.0610 H          0 REO       0.049515
    156 C63         12.7730    -5.3770     1.0270 C          0 REO      -0.174400
    157 H63         12.0140    -5.6940     0.3120 H          0 REO       0.039293
    158 H64         13.7440    -5.3370     0.5330 H          0 REO       0.039293
    159 C64         12.8300    -6.3600     2.1680 C           0 REO       0.907193
    160 O15         12.6080    -5.9860     3.3070 O           0 REO      -0.897133
    161 O16         13.0990    -7.5300     1.9520 O           0 REO      -0.897133
    162 C65         11.2940    -3.4370    -0.5960 C          0 REO      -0.071659
    163 H65         11.3140    -2.7770    -1.4630 H          0 REO       0.049515
    164 H66         11.4990    -4.4600    -0.9130 H          0 REO       0.049515
    165 C66          9.9150    -3.3740     0.0630 C          0 REO      -0.174400
    166 H67          9.8950    -4.0340     0.9300 H          0 REO       0.039293
    167 H68          9.7100    -2.3510     0.3800 H          0 REO       0.039293
    168 C67          8.8650    -3.8120    -0.9260 C           0 REO       0.907193
    169 O17          9.1910    -4.1440    -2.0530 O           0 REO      -0.897133
    170 O18          7.6910    -3.8340    -0.5990 O           0 REO      -0.897133
    171 C68         13.7220    -2.9360    -0.2850 C          0 REO      -0.071659
    172 H69         13.9750    -3.9240    -0.6700 H          0 REO       0.049515
    173 H70         13.6810    -2.2250    -1.1100 H          0 REO       0.049515
    174 C69         14.7880    -2.4910     0.7190 C          0 REO      -0.174400
    175 H71         14.5350    -1.5030     1.1030 H          0 REO       0.039293
    176 H72         14.8290    -3.2020     1.5440 H          0 REO       0.039293
    177 C70         16.1300    -2.4350     0.0350 C           0 REO       0.907193
    178 O19         16.2250    -2.7250    -1.1450 O           0 REO      -0.897133
    179 O20         17.1200    -2.1010     0.6630 O           0 REO      -0.897133
    180 C71         10.9680     4.1030    -1.1760 C          0 REO      -0.089844
    181 H73         11.8950     4.1610    -1.7470 H          0 REO       0.066811
    182 H74         10.1660     3.7480    -1.8230 H          0 REO       0.066811
    183 C72         10.6130     5.4900    -0.6370 C          0 REO      -0.146289
    184 H75          9.6860     5.4310    -0.0670 H          0 REO       0.056367
    185 H76         11.4150     5.8440     0.0100 H          0 REO       0.056367
    186 C73         10.4350     6.4460    -1.7880 C           0 REO       0.658100
    187 O21         10.5790     6.0560    -2.9280 O           0 REO      -0.635989
    188 N14         10.1170     7.7340    -1.5510 N           0 REO      -0.554900
    189 H77         10.0020     8.0450    -0.6400 H          0 REO       0.291056
    190 C74          9.9440     8.6630    -2.6700 C          0 REO       0.135289
    191 C75          9.5890    10.0500    -2.1310 C          0 REO      -0.071659
    192 H78          8.6620     9.9920    -1.5600 H          0 REO       0.049515
    193 H79         10.3910    10.4050    -1.4840 H          0 REO       0.049515
    194 C76          9.4080    11.0210    -3.2990 C          0 REO      -0.174400
    195 H80         10.3350    11.0800    -3.8700 H          0 REO       0.039293
    196 H81          8.6060    10.6660    -3.9460 H          0 REO       0.039293
    197 C77          9.0580    12.3870    -2.7680 C           0 REO       0.907193
    198 O22          8.9620    12.5680    -1.5660 O           0 REO      -0.897133
    199 O23          8.8720    13.3120    -3.5400 O           0 REO      -0.897133
    200 C78         11.2450     8.7460    -3.4710 C          0 REO      -0.071659
    201 H82         11.4520     7.7780    -3.9290 H          0 REO       0.049515
    202 H83         11.1460     9.5020    -4.2490 H          0 REO       0.049515
    203 C79         12.3960     9.1230    -2.5360 C          0 REO      -0.174400
    204 H84         12.1900    10.0910    -2.0780 H          0 REO       0.039293
    205 H85         12.4960     8.3670    -1.7580 H          0 REO       0.039293
    206 C80         13.6780     9.2040    -3.3240 C           0 REO       0.907193
    207 O24         13.6720     8.9800    -4.5230 O           0 REO      -0.897133
    208 O25         14.7210     9.4930    -2.7640 O           0 REO      -0.897133
    209 C81          8.8180     8.1650    -3.5780 C          0 REO      -0.071659
    210 H86          8.6890     8.8570    -4.4100 H          0 REO       0.049515
    211 H87          9.0710     7.1770    -3.9620 H          0 REO       0.049515
    212 C82          7.5160     8.0830    -2.7770 C          0 REO      -0.174400
    213 H88          7.6450     7.3920    -1.9450 H          0 REO       0.039293
    214 H89          7.2630     9.0710    -2.3930 H          0 REO       0.039293
    215 C83          6.4070     7.5930    -3.6710 C           0 REO       0.907193
    216 O26          6.6360     7.3330    -4.8400 O           0 REO      -0.897133
    217 O27          5.2800     7.4560    -3.2250 O           0 REO      -0.897133
    218 C84          2.8300    -1.3730    -3.5970 C          0 REO      -0.047433
    219 H90          3.5930    -0.9630    -2.9360 H          0 REO       0.053200
    220 H91          2.5870    -2.3890    -3.2860 H          0 REO       0.053200
    221 C85          3.3550    -1.3920    -5.0340 C          0 REO      -0.096433
    222 H92          4.2510    -2.0110    -5.0850 H          0 REO       0.039367
    223 H93          2.5910    -1.8020    -5.6950 H          0 REO       0.039367
    224 H94          3.5980    -0.3760    -5.3460 H          0 REO       0.039367
    225 C86          0.2190    -2.6060    -3.5660 C          0 REO       0.124300
    226 H95         -0.8270    -2.8990    -3.6620 H          0 REO       0.058200
    227 H96          0.8020    -3.0330    -4.3810 H          0 REO       0.058200
    228 N15          0.7520    -3.0590    -2.2680 N           0 REO      -0.545567
    229 H97          1.6210    -2.7480    -1.9690 H          0 REO       0.289167
    230 C87          0.0430    -3.8990    -1.4970 C           0 REO       0.738433
    231 O28         -0.8700    -4.5340    -1.9880 O           0 REO      -0.628100
    232 N16          0.3300    -4.0480    -0.1920 N           0 REO      -0.448767
    233 H98          0.8610    -3.3800     0.2680 H          0 REO       0.299833
    234 C88         -2.1570    -0.9630    -3.6550 C          0 REO      -0.047433
    235 H99         -2.1460    -1.9100    -3.1150 H          0 REO       0.053200
    236 H100        -2.9020    -0.3020    -3.2140 H          0 REO       0.053200
    237 C89         -2.5050    -1.2170    -5.1230 C          0 REO      -0.096433
    238 H101        -3.4880    -1.6840    -5.1880 H          0 REO       0.039367
    239 H102        -2.5160    -0.2710    -5.6630 H          0 REO       0.039367
    240 H103        -1.7600    -1.8790    -5.5640 H          0 REO       0.039367
    241 C90         -6.8260     5.8100    -0.0870 C           0 REO       0.670033
    242 O29         -6.8470     5.8010    -1.3030 O           0 REO      -0.600767
    243 N17         -7.6320     6.6480     0.5950 N           0 REO      -0.558567
    244 H104        -7.6150     6.6550     1.5640 H          0 REO       0.300167
    245 C91         -8.5330     7.5480    -0.1290 C          0 REO       0.160733
    246 C92         -9.3310     8.3850     0.8730 C          0 REO      -0.089844
    247 H105        -9.9150     7.7250     1.5150 H          0 REO       0.066811
    248 H106        -8.6450     8.9720     1.4840 H          0 REO       0.066811
    249 C93        -10.2720     9.3250     0.1170 C          0 REO      -0.146289
    250 H107        -9.6890     9.9850    -0.5240 H          0 REO       0.056367
    251 H108       -10.9590     8.7380    -0.4940 H          0 REO       0.056367
    252 C94        -11.0580    10.1490     1.1040 C           0 REO       0.658100
    253 O30        -10.8820    10.0000     2.2950 O           0 REO      -0.635989
    254 N18        -11.9560    11.0520     0.6640 N           0 REO      -0.554900
    255 H109       -12.0970    11.1720    -0.2890 H          0 REO       0.291056
    256 C95        -12.7200    11.8540     1.6230 C          0 REO       0.135289
    257 C96        -13.6610    12.7940     0.8670 C          0 REO      -0.071659
    258 H110       -13.0780    13.4540     0.2260 H          0 REO       0.049515
    259 H111       -14.3470    12.2070     0.2570 H          0 REO       0.049515
    260 C97        -14.4590    13.6310     1.8690 C          0 REO      -0.174400
    261 H112       -15.0430    12.9710     2.5110 H          0 REO       0.039293
    262 H113       -13.7730    14.2180     2.4800 H          0 REO       0.039293
    263 C98        -15.3860    14.5560     1.1250 C           0 REO       0.907193
    264 O31        -15.4070    14.5480    -0.0940 O           0 REO      -0.897133
    265 O32        -16.1160    15.3140     1.7420 O           0 REO      -0.897133
    266 C99        -13.5390    10.9270     2.5240 C          0 REO      -0.071659
    267 H114       -12.8660    10.3190     3.1280 H          0 REO       0.049515
    268 H115       -14.1740    11.5250     3.1780 H          0 REO       0.049515
    269 C100       -14.4120    10.0160     1.6590 C          0 REO      -0.174400
    270 H116       -15.0850    10.6240     1.0550 H          0 REO       0.039293
    271 H117       -13.7770     9.4190     1.0040 H          0 REO       0.039293
    272 C101       -15.2190     9.1030     2.5460 C           0 REO       0.907193
    273 O33        -15.1060     9.1750     3.7580 O           0 REO      -0.897133
    274 O34        -15.9840     8.2930     2.0510 O           0 REO      -0.897133
    275 C102       -11.7570    12.6780     2.4800 C          0 REO      -0.071659
    276 H118       -12.3250    13.2740     3.1940 H          0 REO       0.049515
    277 H119       -11.0860    12.0080     3.0190 H          0 REO       0.049515
    278 C103       -10.9380    13.6040     1.5800 C          0 REO      -0.174400
    279 H120       -10.3690    13.0080     0.8660 H          0 REO       0.039293
    280 H121       -11.6080    14.2740     1.0410 H          0 REO       0.039293
    281 C104        -9.9890    14.4160     2.4240 C           0 REO       0.907193
    282 O35         -9.9700    14.2670     3.6340 O           0 REO      -0.897133
    283 O36         -9.2410    15.2210     1.8970 O           0 REO      -0.897133
    284 C105        -7.7140     8.4740    -1.0300 C          0 REO      -0.089844
    285 H122        -7.2160     7.8850    -1.8000 H          0 REO       0.066811
    286 H123        -8.3760     9.2020    -1.5000 H          0 REO       0.066811
    287 C106        -6.6660     9.2070    -0.1890 C          0 REO      -0.146289
    288 H124        -7.1650     9.7960     0.5800 H          0 REO       0.056367
    289 H125        -6.0050     8.4800     0.2810 H          0 REO       0.056367
    290 C107        -5.8590    10.1200    -1.0760 C           0 REO       0.658100
    291 O37         -6.0990    10.1780    -2.2640 O           0 REO      -0.635989
    292 N19         -4.8710    10.8700    -0.5500 N           0 REO      -0.554900
    293 H126        -4.6800    10.8230     0.4000 H          0 REO       0.291056
    294 C108        -4.0870    11.7580    -1.4130 C          0 REO       0.135289
    295 C109        -3.0390    12.4900    -0.5720 C          0 REO      -0.071659
    296 H127        -3.5380    13.0790     0.1980 H          0 REO       0.049515
    297 H128        -2.3780    11.7630    -0.1020 H          0 REO       0.049515
    298 C110        -2.2200    13.4170    -1.4730 C          0 REO      -0.174400
    299 H129        -1.7210    12.8280    -2.2430 H          0 REO       0.039293
    300 H130        -2.8810    14.1440    -1.9430 H          0 REO       0.039293
    301 C111        -1.1880    14.1380    -0.6450 C           0 REO       0.907193
    302 O38         -1.1140    13.9310     0.5540 O           0 REO      -0.897133
    303 O39         -0.4260    14.9300    -1.1740 O           0 REO      -0.897133
    304 C112        -3.3870    10.9310    -2.4930 C          0 REO      -0.071659
    305 H131        -4.1340    10.4800    -3.1460 H          0 REO       0.049515
    306 H132        -2.7340    11.5770    -3.0790 H          0 REO       0.049515
    307 C113        -2.5550     9.8290    -1.8330 C          0 REO      -0.174400
    308 H133        -1.8080    10.2800    -1.1800 H          0 REO       0.039293
    309 H134        -3.2080     9.1830    -1.2470 H          0 REO       0.039293
    310 C114        -1.8660     9.0150    -2.8980 C           0 REO       0.907193
    311 O40         -2.0250     9.2900    -4.0750 O           0 REO      -0.897133
    312 O41         -1.1490     8.0810    -2.5820 O           0 REO      -0.897133
    313 C115        -5.0160    12.7790    -2.0730 C          0 REO      -0.071659
    314 H135        -4.4320    13.4390    -2.7150 H          0 REO       0.049515
    315 H136        -5.7620    12.2570    -2.6720 H          0 REO       0.049515
    316 C116        -5.7150    13.6060    -0.9930 C          0 REO      -0.174400
    317 H137        -6.2990    12.9450    -0.3510 H          0 REO       0.039293
    318 H138        -4.9690    14.1270    -0.3940 H          0 REO       0.039293
    319 C117        -6.6300    14.6110    -1.6430 C           0 REO       0.907193
    320 O42         -6.7140    14.6620    -2.8580 O           0 REO      -0.897133
    321 O43         -7.2860    15.3740    -0.9540 O           0 REO      -0.897133
    322 C118        -9.4960     6.7240    -0.9860 C          0 REO      -0.089844
    323 H139       -10.1670     7.3940    -1.5250 H          0 REO       0.066811
    324 H140        -8.9280     6.1280    -1.7000 H          0 REO       0.066811
    325 C119       -10.3160     5.7970    -0.0860 C          0 REO      -0.146289
    326 H141        -9.6450     5.1280     0.4530 H          0 REO       0.056367
    327 H142       -10.8840     6.3940     0.6280 H          0 REO       0.056367
    328 C120       -11.2640     4.9860    -0.9300 C           0 REO       0.658100
    329 O44        -11.2830     5.1340    -2.1340 O           0 REO      -0.635989
    330 N20        -12.0910     4.0960    -0.3480 N           0 REO      -0.554900
    331 H143       -12.0760     3.9770     0.6150 H          0 REO       0.291056
    332 C121       -13.0140     3.3070    -1.1680 C          0 REO       0.135289
    333 C122       -13.8330     2.3800    -0.2680 C          0 REO      -0.071659
    334 H144       -13.1620     1.7100     0.2710 H          0 REO       0.049515
    335 H145       -14.4010     2.9760     0.4460 H          0 REO       0.049515
    336 C123       -14.7960     1.5560    -1.1250 C          0 REO      -0.174400
    337 H146       -15.4670     2.2260    -1.6630 H          0 REO       0.039293
    338 H147       -14.2280     0.9600    -1.8390 H          0 REO       0.039293
    339 C124       -15.6030     0.6440    -0.2380 C           0 REO       0.907193
    340 O45        -15.4240     0.6510     0.9680 O           0 REO      -0.897133
    341 O46        -16.4340    -0.1030    -0.7260 O           0 REO      -0.897133
    342 C125       -13.9550     4.2470    -1.9240 C          0 REO      -0.071659
    343 H148       -13.3800     4.8450    -2.6310 H          0 REO       0.049515
    344 H149       -14.6970     3.6600    -2.4650 H          0 REO       0.049515
    345 C126       -14.6610     5.1700    -0.9290 C          0 REO      -0.174400
    346 H150       -15.2360     4.5710    -0.2230 H          0 REO       0.039293
    347 H151       -13.9190     5.7570    -0.3880 H          0 REO       0.039293
    348 C127       -15.5890     6.0950    -1.6730 C           0 REO       0.907193
    349 O47        -15.6760     6.0230    -2.8870 O           0 REO      -0.897133
    350 O48        -16.2510     6.9160    -1.0620 O           0 REO      -0.897133
    351 C128       -12.2160     2.4700    -2.1700 C          0 REO      -0.071659
    352 H152       -12.9020     1.8830    -2.7810 H          0 REO       0.049515
    353 H153       -11.6320     3.1300    -2.8120 H          0 REO       0.049515
    354 C129       -11.2740     1.5300    -1.4150 C          0 REO      -0.174400
    355 H154       -10.5880     2.1170    -0.8040 H          0 REO       0.039293
    356 H155       -11.8580     0.8700    -0.7730 H          0 REO       0.039293
    357 C130       -10.4890     0.7050    -2.4020 C           0 REO       0.907193
    358 O49        -10.6650     0.8560    -3.5990 O           0 REO      -0.897133
    359 O50         -9.6760    -0.1120    -2.0030 O           0 REO      -0.897133
    360 C131         0.2940     2.8680     6.5020 C          0 REO      -0.049433
    361 H156         1.2640     3.2410     6.1710 H          0 REO       0.055533
    362 H157        -0.4920     3.3090     5.8890 H          0 REO       0.055533
    363 C132         0.0740     3.2480     7.9670 C          0 REO      -0.091100
    364 H158         0.0120     4.3330     8.0560 H          0 REO       0.036922
    365 H159        -0.8550     2.8010     8.3230 H          0 REO       0.036922
    366 H160         0.9070     2.8810     8.5670 H          0 REO       0.036922
    367 C133         2.6760    -1.5260     6.2520 C          0 REO      -0.049433
    368 H161         2.5130    -2.4830     5.7560 H          0 REO       0.055533
    369 H162         3.4470    -0.9680     5.7210 H          0 REO       0.055533
    370 C134         3.1250    -1.7700     7.6940 C          0 REO      -0.091100
    371 H163         4.0970    -2.2640     7.6940 H          0 REO       0.036922
    372 H164         3.2030    -0.8170     8.2170 H          0 REO       0.036922
    373 H165         2.3960    -2.4030     8.2000 H          0 REO       0.036922
    374 C135        -0.4760    -6.4180     2.5360 C          0 REO      -0.103000
    375 H166        -0.3930    -6.4910     3.6100 H          0 REO       0.148333
    376 C136        -1.0030    -7.4660     1.8180 C          0 REO      -0.104000
    377 H167        -1.3220    -8.3630     2.3280 H          0 REO       0.154667
    378 C137        -2.6810   -10.7200    -0.4690 C          0 REO       0.160733
    379 C138        -3.0620   -11.8530     0.4860 C          0 REO      -0.089844
    380 H168        -2.1740   -12.1950     1.0180 H          0 REO       0.066811
    381 H169        -3.7980   -11.4910     1.2040 H          0 REO       0.066811
    382 C139        -3.6570   -13.0150    -0.3120 C          0 REO      -0.146289
    383 H170        -4.5450   -12.6740    -0.8430 H          0 REO       0.056367
    384 H171        -2.9200   -13.3770    -1.0300 H          0 REO       0.056367
    385 C140        -4.0320   -14.1310     0.6290 C           0 REO       0.658100
    386 O51         -3.8420   -14.0090     1.8200 O           0 REO      -0.635989
    387 N21         -4.5780   -15.2640     0.1460 N           0 REO      -0.554900
    388 H172        -4.7300   -15.3620    -0.8070 H          0 REO       0.291056
    389 C141        -4.9430   -16.3490     1.0600 C          0 REO       0.135289
    390 C142        -5.5380   -17.5110     0.2620 C          0 REO      -0.071659
    391 H173        -6.4260   -17.1700    -0.2700 H          0 REO       0.049515
    392 H174        -4.8010   -17.8730    -0.4560 H          0 REO       0.049515
    393 C143        -5.9190   -18.6440     1.2170 C          0 REO      -0.174400
    394 H175        -5.0300   -18.9850     1.7480 H          0 REO       0.039293
    395 H176        -6.6550   -18.2820     1.9340 H          0 REO       0.039293
    396 C144        -6.5040   -19.7880     0.4300 C           0 REO       0.907193
    397 O52         -6.6070   -19.7050    -0.7820 O           0 REO      -0.897133
    398 O53         -6.8750   -20.7970     1.0060 O           0 REO      -0.897133
    399 C145        -3.6960   -16.8280     1.8060 C          0 REO      -0.071659
    400 H177        -3.3240   -16.0270     2.4440 H          0 REO       0.049515
    401 H178        -3.9500   -17.6930     2.4200 H          0 REO       0.049515
    402 C146        -2.6160   -17.2200     0.7950 C          0 REO      -0.174400
    403 H179        -2.9880   -18.0210     0.1580 H          0 REO       0.039293
    404 H180        -2.3620   -16.3550     0.1820 H          0 REO       0.039293
    405 C147        -1.3880   -17.6920     1.5300 C           0 REO       0.907193
    406 O54         -1.3770   -17.7130     2.7490 O           0 REO      -0.897133
    407 O55         -0.4050   -18.0520     0.9060 O           0 REO      -0.897133
    408 C148        -5.9760   -15.8410     2.0680 C          0 REO      -0.071659
    409 H181        -6.2480   -16.6480     2.7480 H          0 REO       0.049515
    410 H182        -5.5530   -15.0140     2.6360 H          0 REO       0.049515
    411 C149        -7.2230   -15.3620     1.3220 C          0 REO      -0.174400
    412 H183        -6.9520   -14.5550     0.6410 H          0 REO       0.039293
    413 H184        -7.6470   -16.1900     0.7530 H          0 REO       0.039293
    414 C150        -8.2410   -14.8620     2.3140 C           0 REO       0.907193
    415 O56         -7.9920   -14.8860     3.5070 O           0 REO      -0.897133
    416 O57         -9.3130   -14.4320     1.9230 O           0 REO      -0.897133
    417 C151        -3.9280   -10.2410    -1.2150 C          0 REO      -0.089844
    418 H185        -3.6430    -9.4960    -1.9580 H          0 REO       0.066811
    419 H186        -4.4020   -11.0870    -1.7120 H          0 REO       0.066811
    420 C152        -4.9100    -9.6190    -0.2200 C          0 REO      -0.146289
    421 H187        -5.1950   -10.3630     0.5240 H          0 REO       0.056367
    422 H188        -4.4360    -8.7720     0.2770 H          0 REO       0.056367
    423 C153        -6.1380    -9.1470    -0.9540 C           0 REO       0.658100
    424 O58         -6.2200    -9.2930    -2.1560 O           0 REO      -0.635989
    425 N22         -7.1450    -8.5610    -0.2770 N           0 REO      -0.554900
    426 H189        -7.0800    -8.4440     0.6840 H          0 REO       0.291056
    427 C154        -8.3390    -8.1030    -0.9910 C          0 REO       0.135289
    428 C155        -9.3210    -7.4800     0.0040 C          0 REO      -0.071659
    429 H190        -9.6060    -8.2250     0.7470 H          0 REO       0.049515
    430 H191        -8.8470    -6.6340     0.5010 H          0 REO       0.049515
    431 C156       -10.5680    -7.0010    -0.7420 C          0 REO      -0.174400
    432 H192       -10.2830    -6.2570    -1.4860 H          0 REO       0.039293
    433 H193       -11.0420    -7.8480    -1.2390 H          0 REO       0.039293
    434 C157       -11.5350    -6.3880     0.2380 C           0 REO       0.907193
    435 O59        -11.2530    -6.3390     1.4230 O           0 REO      -0.897133
    436 O60        -12.5990    -5.9410    -0.1550 O           0 REO      -0.897133
    437 C158        -7.9390    -7.0570    -2.0340 C          0 REO      -0.071659
    438 H194        -7.3100    -7.5230    -2.7930 H          0 REO       0.049515
    439 H195        -8.8350    -6.6510    -2.5040 H          0 REO       0.049515
    440 C159        -7.1640    -5.9280    -1.3530 C          0 REO      -0.174400
    441 H196        -7.7930    -5.4620    -0.5950 H          0 REO       0.039293
    442 H197        -6.2680    -6.3340    -0.8840 H          0 REO       0.039293
    443 C160        -6.7700    -4.8980    -2.3810 C           0 REO       0.907193
    444 O61         -7.0800    -5.0540    -3.5500 O           0 REO      -0.897133
    445 O62         -6.1410    -3.9100    -2.0430 O           0 REO      -0.897133
    446 C161        -9.0040    -9.2910    -1.6890 C          0 REO      -0.071659
    447 H198        -9.8930    -8.9490    -2.2200 H          0 REO       0.049515
    448 H199        -8.3050    -9.7340    -2.3980 H          0 REO       0.049515
    449 C162        -9.4040   -10.3360    -0.6460 C          0 REO      -0.174400
    450 H200        -8.5160   -10.6770    -0.1140 H          0 REO       0.039293
    451 H201       -10.1040    -9.8930     0.0630 H          0 REO       0.039293
    452 C163       -10.0590   -11.5060    -1.3330 C           0 REO       0.907193
    453 O63        -10.1940   -11.5050    -2.5450 O           0 REO      -0.897133
    454 O64        -10.4550   -12.4550    -0.6770 O           0 REO      -0.897133
    455 C164        -1.6480   -11.2280    -1.4760 C          0 REO      -0.089844
    456 H202        -2.0710   -12.0560    -2.0450 H          0 REO       0.066811
    457 H203        -1.3760   -10.4210    -2.1560 H          0 REO       0.066811
    458 C165        -0.4010   -11.7070    -0.7300 C          0 REO      -0.146289
    459 H204         0.0230   -10.8800    -0.1610 H          0 REO       0.056367
    460 H205        -0.6720   -12.5150    -0.0500 H          0 REO       0.056367
    461 C166         0.6170   -12.2080    -1.7220 C           0 REO       0.658100
    462 O65          0.3690   -12.1840    -2.9090 O           0 REO      -0.635989
    463 N23          1.8020   -12.6820    -1.2910 N           0 REO      -0.554900
    464 H206         2.0000   -12.7020    -0.3410 H          0 REO       0.291056
    465 C167         2.7920   -13.1690    -2.2550 C          0 REO       0.135289
    466 C168         4.0390   -13.6480    -1.5090 C          0 REO      -0.071659
    467 H207         4.4620   -12.8200    -0.9410 H          0 REO       0.049515
    468 H208         3.7670   -14.4550    -0.8290 H          0 REO       0.049515
    469 C169         5.0720   -14.1560    -2.5170 C          0 REO      -0.174400
    470 H209         4.6480   -14.9840    -3.0860 H          0 REO       0.039293
    471 H210         5.3430   -13.3490    -3.1970 H          0 REO       0.039293
    472 C170         6.3000   -14.6280    -1.7820 C           0 REO       0.907193
    473 O66          6.3450   -14.5640    -0.5650 O           0 REO      -0.897133
    474 O67          7.2490   -15.0740    -2.4040 O           0 REO      -0.897133
    475 C171         2.1970   -14.3310    -3.0540 C          0 REO      -0.071659
    476 H211         1.3620   -13.9690    -3.6540 H          0 REO       0.049515
    477 H212         2.9610   -14.7500    -3.7090 H          0 REO       0.049515
    478 C172         1.7020   -15.4110    -2.0900 C          0 REO      -0.174400
    479 H213         2.5370   -15.7720    -1.4900 H          0 REO       0.039293
    480 H214         0.9380   -14.9920    -1.4360 H          0 REO       0.039293
    481 C173         1.1160   -16.5550    -2.8770 C           0 REO       0.907193
    482 O68          1.0970   -16.5110    -4.0950 O           0 REO      -0.897133
    483 O69          0.6620   -17.5260    -2.2950 O           0 REO      -0.897133
    484 C174         3.1730   -12.0360    -3.2100 C          0 REO      -0.071659
    485 H215         3.9090   -12.3980    -3.9280 H          0 REO       0.049515
    486 H216         2.2840   -11.6940    -3.7420 H          0 REO       0.049515
    487 C175         3.7670   -10.8740    -2.4120 C          0 REO      -0.174400
    488 H217         3.0310   -10.5120    -1.6940 H          0 REO       0.039293
    489 H218         4.6560   -11.2150    -1.8800 H          0 REO       0.039293
    490 C176         4.1430    -9.7580    -3.3530 C           0 REO       0.907193
    491 O70          3.9520    -9.8810    -4.5510 O           0 REO      -0.897133
    492 O71          4.6370    -8.7330    -2.9160 O           0 REO      -0.897133
@<TRIPOS>BOND
     1     1     2 1   
     2     2     3 1   
     3     2   378 1   
     4     3     4 2   
     5     3     5 1   
     6     5     6 ar  
     7     5   376 ar  
     8     6     7 1   
     9     6     8 ar  
    10     8     9 ar  
    11     8   232 1   
    12     9    10 1   
    13     9   374 ar  
    14    10    11 1   
    15    10    12 1   
    16    12    13 2   
    17    12    14 1   
    18    14    15 1   
    19    14    16 1   
    20    16    17 1   
    21    16    18 1   
    22    16    19 1   
    23    19    20 ar  
    24    19    24 ar  
    25    20    21 ar  
    26    20   367 1   
    27    21    22 ar  
    28    21    96 1   
    29    22    23 ar  
    30    22   360 1   
    31    23    24 ar  
    32    23    32 1   
    33    24    25 1   
    34    25    26 1   
    35    25    27 1   
    36    25    28 1   
    37    28    29 1   
    38    28    30 1   
    39    28    31 1   
    40    32    33 1   
    41    32    34 1   
    42    32    35 1   
    43    35    36 1   
    44    35    37 1   
    45    37    38 2   
    46    37    39 1   
    47    39    40 1   
    48    39    41 1   
    49    41    42 ar  
    50    41    49 ar  
    51    42    43 1   
    52    42    44 ar  
    53    44    45 1   
    54    44    46 ar  
    55    46    47 ar  
    56    46   241 1   
    57    47    48 1   
    58    47    49 ar  
    59    49    50 1   
    60    50    51 1   
    61    50    52 1   
    62    52    53 2   
    63    52    54 1   
    64    54    55 1   
    65    54    56 1   
    66    56    57 1   
    67    56    58 1   
    68    56    59 1   
    69    59    60 ar  
    70    59    64 ar  
    71    60    61 ar  
    72    60   234 1   
    73    61    62 ar  
    74    61   225 1   
    75    62    63 ar  
    76    62   218 1   
    77    63    64 ar  
    78    63    72 1   
    79    64    65 1   
    80    65    66 1   
    81    65    67 1   
    82    65    68 1   
    83    68    69 1   
    84    68    70 1   
    85    68    71 1   
    86    72    73 1   
    87    72    74 1   
    88    72    75 1   
    89    75    76 1   
    90    75    77 1   
    91    77    78 2   
    92    77    79 1   
    93    79    80 1   
    94    79    81 1   
    95    81    82 ar  
    96    81    89 ar  
    97    82    83 1   
    98    82    84 ar  
    99    84    85 ar  
   100    84    99 1   
   101    85    86 1   
   102    85    87 ar  
   103    87    88 1   
   104    87    89 ar  
   105    89    90 1   
   106    90    91 1   
   107    90    92 1   
   108    92    93 2   
   109    92    94 1   
   110    94    95 1   
   111    94    96 1   
   112    96    97 1   
   113    96    98 1   
   114    99   100 2   
   115    99   101 1   
   116   101   102 1   
   117   101   103 1   
   118   103   104 1   
   119   103   142 1   
   120   103   180 1   
   121   104   105 1   
   122   104   106 1   
   123   104   107 1   
   124   107   108 1   
   125   107   109 1   
   126   107   110 1   
   127   110   111 2   
   128   110   112 1   
   129   112   113 1   
   130   112   114 1   
   131   114   115 1   
   132   114   124 1   
   133   114   133 1   
   134   115   116 1   
   135   115   117 1   
   136   115   118 1   
   137   118   119 1   
   138   118   120 1   
   139   118   121 1   
   140   121   122 1   
   141   121   123 1   
   142   124   125 1   
   143   124   126 1   
   144   124   127 1   
   145   127   128 1   
   146   127   129 1   
   147   127   130 1   
   148   130   131 1   
   149   130   132 1   
   150   133   134 1   
   151   133   135 1   
   152   133   136 1   
   153   136   137 1   
   154   136   138 1   
   155   136   139 1   
   156   139   140 1   
   157   139   141 1   
   158   142   143 1   
   159   142   144 1   
   160   142   145 1   
   161   145   146 1   
   162   145   147 1   
   163   145   148 1   
   164   148   149 2   
   165   148   150 1   
   166   150   151 1   
   167   150   152 1   
   168   152   153 1   
   169   152   162 1   
   170   152   171 1   
   171   153   154 1   
   172   153   155 1   
   173   153   156 1   
   174   156   157 1   
   175   156   158 1   
   176   156   159 1   
   177   159   160 1   
   178   159   161 1   
   179   162   163 1   
   180   162   164 1   
   181   162   165 1   
   182   165   166 1   
   183   165   167 1   
   184   165   168 1   
   185   168   169 1   
   186   168   170 1   
   187   171   172 1   
   188   171   173 1   
   189   171   174 1   
   190   174   175 1   
   191   174   176 1   
   192   174   177 1   
   193   177   178 1   
   194   177   179 1   
   195   180   181 1   
   196   180   182 1   
   197   180   183 1   
   198   183   184 1   
   199   183   185 1   
   200   183   186 1   
   201   186   187 2   
   202   186   188 1   
   203   188   189 1   
   204   188   190 1   
   205   190   191 1   
   206   190   200 1   
   207   190   209 1   
   208   191   192 1   
   209   191   193 1   
   210   191   194 1   
   211   194   195 1   
   212   194   196 1   
   213   194   197 1   
   214   197   198 1   
   215   197   199 1   
   216   200   201 1   
   217   200   202 1   
   218   200   203 1   
   219   203   204 1   
   220   203   205 1   
   221   203   206 1   
   222   206   207 1   
   223   206   208 1   
   224   209   210 1   
   225   209   211 1   
   226   209   212 1   
   227   212   213 1   
   228   212   214 1   
   229   212   215 1   
   230   215   216 1   
   231   215   217 1   
   232   218   219 1   
   233   218   220 1   
   234   218   221 1   
   235   221   222 1   
   236   221   223 1   
   237   221   224 1   
   238   225   226 1   
   239   225   227 1   
   240   225   228 1   
   241   228   229 1   
   242   228   230 1   
   243   230   231 2   
   244   230   232 1   
   245   232   233 1   
   246   234   235 1   
   247   234   236 1   
   248   234   237 1   
   249   237   238 1   
   250   237   239 1   
   251   237   240 1   
   252   241   242 2   
   253   241   243 1   
   254   243   244 1   
   255   243   245 1   
   256   245   246 1   
   257   245   284 1   
   258   245   322 1   
   259   246   247 1   
   260   246   248 1   
   261   246   249 1   
   262   249   250 1   
   263   249   251 1   
   264   249   252 1   
   265   252   253 2   
   266   252   254 1   
   267   254   255 1   
   268   254   256 1   
   269   256   257 1   
   270   256   266 1   
   271   256   275 1   
   272   257   258 1   
   273   257   259 1   
   274   257   260 1   
   275   260   261 1   
   276   260   262 1   
   277   260   263 1   
   278   263   264 1   
   279   263   265 1   
   280   266   267 1   
   281   266   268 1   
   282   266   269 1   
   283   269   270 1   
   284   269   271 1   
   285   269   272 1   
   286   272   273 1   
   287   272   274 1   
   288   275   276 1   
   289   275   277 1   
   290   275   278 1   
   291   278   279 1   
   292   278   280 1   
   293   278   281 1   
   294   281   282 1   
   295   281   283 1   
   296   284   285 1   
   297   284   286 1   
   298   284   287 1   
   299   287   288 1   
   300   287   289 1   
   301   287   290 1   
   302   290   291 2   
   303   290   292 1   
   304   292   293 1   
   305   292   294 1   
   306   294   295 1   
   307   294   304 1   
   308   294   313 1   
   309   295   296 1   
   310   295   297 1   
   311   295   298 1   
   312   298   299 1   
   313   298   300 1   
   314   298   301 1   
   315   301   302 1   
   316   301   303 1   
   317   304   305 1   
   318   304   306 1   
   319   304   307 1   
   320   307   308 1   
   321   307   309 1   
   322   307   310 1   
   323   310   311 1   
   324   310   312 1   
   325   313   314 1   
   326   313   315 1   
   327   313   316 1   
   328   316   317 1   
   329   316   318 1   
   330   316   319 1   
   331   319   320 1   
   332   319   321 1   
   333   322   323 1   
   334   322   324 1   
   335   322   325 1   
   336   325   326 1   
   337   325   327 1   
   338   325   328 1   
   339   328   329 2   
   340   328   330 1   
   341   330   331 1   
   342   330   332 1   
   343   332   333 1   
   344   332   342 1   
   345   332   351 1   
   346   333   334 1   
   347   333   335 1   
   348   333   336 1   
   349   336   337 1   
   350   336   338 1   
   351   336   339 1   
   352   339   340 1   
   353   339   341 1   
   354   342   343 1   
   355   342   344 1   
   356   342   345 1   
   357   345   346 1   
   358   345   347 1   
   359   345   348 1   
   360   348   349 1   
   361   348   350 1   
   362   351   352 1   
   363   351   353 1   
   364   351   354 1   
   365   354   355 1   
   366   354   356 1   
   367   354   357 1   
   368   357   358 1   
   369   357   359 1   
   370   360   361 1   
   371   360   362 1   
   372   360   363 1   
   373   363   364 1   
   374   363   365 1   
   375   363   366 1   
   376   367   368 1   
   377   367   369 1   
   378   367   370 1   
   379   370   371 1   
   380   370   372 1   
   381   370   373 1   
   382   374   375 1   
   383   374   376 ar  
   384   376   377 1   
   385   378   379 1   
   386   378   417 1   
   387   378   455 1   
   388   379   380 1   
   389   379   381 1   
   390   379   382 1   
   391   382   383 1   
   392   382   384 1   
   393   382   385 1   
   394   385   386 2   
   395   385   387 1   
   396   387   388 1   
   397   387   389 1   
   398   389   390 1   
   399   389   399 1   
   400   389   408 1   
   401   390   391 1   
   402   390   392 1   
   403   390   393 1   
   404   393   394 1   
   405   393   395 1   
   406   393   396 1   
   407   396   397 1   
   408   396   398 1   
   409   399   400 1   
   410   399   401 1   
   411   399   402 1   
   412   402   403 1   
   413   402   404 1   
   414   402   405 1   
   415   405   406 1   
   416   405   407 1   
   417   408   409 1   
   418   408   410 1   
   419   408   411 1   
   420   411   412 1   
   421   411   413 1   
   422   411   414 1   
   423   414   415 1   
   424   414   416 1   
   425   417   418 1   
   426   417   419 1   
   427   417   420 1   
   428   420   421 1   
   429   420   422 1   
   430   420   423 1   
   431   423   424 2   
   432   423   425 1   
   433   425   426 1   
   434   425   427 1   
   435   427   428 1   
   436   427   437 1   
   437   427   446 1   
   438   428   429 1   
   439   428   430 1   
   440   428   431 1   
   441   431   432 1   
   442   431   433 1   
   443   431   434 1   
   444   434   435 1   
   445   434   436 1   
   446   437   438 1   
   447   437   439 1   
   448   437   440 1   
   449   440   441 1   
   450   440   442 1   
   451   440   443 1   
   452   443   444 1   
   453   443   445 1   
   454   446   447 1   
   455   446   448 1   
   456   446   449 1   
   457   449   450 1   
   458   449   451 1   
   459   449   452 1   
   460   452   453 1   
   461   452   454 1   
   462   455   456 1   
   463   455   457 1   
   464   455   458 1   
   465   458   459 1   
   466   458   460 1   
   467   458   461 1   
   468   461   462 2   
   469   461   463 1   
   470   463   464 1   
   471   463   465 1   
   472   465   466 1   
   473   465   475 1   
   474   465   484 1   
   475   466   467 1   
   476   466   468 1   
   477   466   469 1   
   478   469   470 1   
   479   469   471 1   
   480   469   472 1   
   481   472   473 1   
   482   472   474 1   
   483   475   476 1   
   484   475   477 1   
   485   475   478 1   
   486   478   479 1   
   487   478   480 1   
   488   478   481 1   
   489   481   482 1   
   490   481   483 1   
   491   484   485 1   
   492   484   486 1   
   493   484   487 1   
   494   487   488 1   
   495   487   489 1   
   496   487   490 1   
   497   490   491 1   
   498   490   492 1   
@<TRIPOS>SUBSTRUCTURE
     1 REO         1 TEMP              0 ****  ****    0 ROOT
