@<TRIPOS>MOLECULE
URE
   96   102     1     0     0
SMALL
bcc


@<TRIPOS>ATOM
      1 O           -2.1830    -7.3590     0.0780 O           0 URE      -0.811800
      2 C           -2.4870    -6.3780    -0.5790 C           0 URE       0.897600
      3 O1          -3.1530    -6.5050    -1.5920 O           0 URE      -0.811800
      4 C1          -2.0440    -5.0080    -0.1360 C          0 URE      -0.028550
      5 C2          -0.6830    -4.6800    -0.7550 C          0 URE       0.020950
      6 S            0.6230    -5.0410     0.4550 S          0 URE      -0.277850
      7 S1           2.2410    -4.3120    -0.5650 S          0 URE      -0.277850
      8 C3           3.4710    -4.2170     0.7620 C          0 URE       0.020950
      9 C4           4.8470    -3.9170     0.1590 C          0 URE      -0.028550
     10 N            4.8330    -2.5230    -0.3430 N           0 URE      -0.502900
     11 C5           5.5950    -1.6390     0.3620 C           0 URE       0.665700
     12 O2           6.2550    -2.0080     1.3150 O           0 URE      -0.635350
     13 C6           5.6020    -0.2370    -0.0530 C          0 URE      -0.099100
     14 C7           5.2850     0.1470    -1.3780 C          0 URE      -0.016375
     15 C8           5.3370    -0.7690    -2.4390 C          0 URE      -0.121125
     16 C9           5.0320    -0.3580    -3.6980 C          0 URE      -0.141500
     17 C10          4.6350     0.9510    -3.9600 C          0 URE      -0.141500
     18 C11          4.5470     1.8840    -2.9730 C          0 URE      -0.121125
     19 C12          4.8690     1.5310    -1.6510 C          0 URE      -0.016375
     20 C13          4.7790     2.4640    -0.5880 C          0 URE      -0.099100
     21 C14          5.4700     2.1590     0.6160 C          0 URE      -0.016375
     22 C15          5.7350     3.1400     1.5860 C          0 URE      -0.121125
     23 C16          6.3560     2.7960     2.7500 C          0 URE      -0.141500
     24 C17          6.7570     1.4860     2.9950 C          0 URE      -0.141500
     25 C18          6.5460     0.4910     2.0970 C          0 URE      -0.121125
     26 C19          5.8950     0.7780     0.8900 C          0 URE      -0.016375
     27 C20          3.9010     3.6400    -0.6720 C           0 URE       0.665700
     28 O3           4.0720     4.5790     0.0810 O           0 URE      -0.635350
     29 N1           2.8950     3.6790    -1.5930 N           0 URE      -0.502900
     30 C21          1.9470     4.8110    -1.4650 C          0 URE      -0.028550
     31 C22          0.5160     4.2710    -1.5580 C          0 URE       0.020950
     32 S2          -0.5120     5.0430    -0.2790 S          0 URE      -0.277850
     33 S3          -2.3790     4.4870    -0.9150 S          0 URE      -0.277850
     34 C23         -3.2540     4.3950     0.6700 C          0 URE       0.020950
     35 C24         -4.7070     3.9770     0.4460 C          0 URE      -0.028550
     36 N2          -4.8450     2.5410     0.7790 N           0 URE      -0.502900
     37 C25         -5.4680     1.7720    -0.1650 C           0 URE       0.665700
     38 O4          -5.9830     2.2840    -1.1400 O           0 URE      -0.635350
     39 C26         -5.5030     0.3190     0.0230 C          0 URE      -0.099100
     40 C27         -5.7670    -0.5440    -1.0730 C          0 URE      -0.016375
     41 C28         -6.3700    -0.0680    -2.2450 C          0 URE      -0.121125
     42 C29         -6.5530    -0.9120    -3.2940 C          0 URE      -0.141500
     43 C30         -6.1570    -2.2440    -3.2340 C          0 URE      -0.141500
     44 C31         -5.5820    -2.7730    -2.1240 C          0 URE      -0.121125
     45 C32         -5.3800    -1.9620    -0.9930 C          0 URE      -0.016375
     46 C33         -4.8220    -2.4710     0.1970 C          0 URE      -0.099100
     47 C34         -4.9640    -1.6970     1.3860 C          0 URE      -0.016375
     48 C35         -4.7720    -2.2780     2.6510 C          0 URE      -0.121125
     49 C36         -4.8990    -1.5070     3.7630 C          0 URE      -0.141500
     50 C37         -5.1860    -0.1490     3.6790 C          0 URE      -0.141500
     51 C38         -5.3620     0.4750     2.4840 C          0 URE      -0.121125
     52 C39         -5.2870    -0.2680     1.2980 C          0 URE      -0.016375
     53 C40         -4.0160    -3.6820     0.2610 C           0 URE       0.665700
     54 O5          -4.2530    -4.4730     1.1540 O           0 URE      -0.635350
     55 N3          -3.0200    -3.9940    -0.5970 N           0 URE      -0.502900
     56 C41         -5.6100     4.7910     1.3370 C           0 URE       0.897600
     57 O6          -6.0670     5.8490     0.9390 O           0 URE      -0.811800
     58 O7          -5.8830     4.3920     2.4560 O           0 URE      -0.811800
     59 C42          2.1450     5.4880    -0.1340 C           0 URE       0.897600
     60 O8           2.4140     6.6760    -0.0880 O           0 URE      -0.811800
     61 O9           2.0380     4.8470     0.8980 O           0 URE      -0.811800
     62 C43          5.9110    -4.0680     1.2160 C           0 URE       0.897600
     63 O10          7.0650    -4.2890     0.8920 O           0 URE      -0.811800
     64 O11          5.6170    -3.9680     2.3950 O           0 URE      -0.811800
     65 H           -1.9690    -4.9790     0.9510 H          0 URE       0.089700
     66 H1          -0.5320    -5.2890    -1.6460 H          0 URE       0.071575
     67 H2          -0.6490    -3.6250    -1.0230 H          0 URE       0.071575
     68 H3           3.1970    -3.4220     1.4560 H          0 URE       0.071575
     69 H4           3.5070    -5.1680     1.2940 H          0 URE       0.071575
     70 H5           5.0460    -4.6030    -0.6650 H          0 URE       0.089700
     71 H6           4.3170    -2.2570    -1.1200 H          0 URE       0.308250
     72 H7           5.6180    -1.7960    -2.2560 H          0 URE       0.170125
     73 H8           5.0980    -1.0620    -4.5140 H          0 URE       0.129750
     74 H9           4.3910     1.2340    -4.9730 H          0 URE       0.129750
     75 H10          4.2320     2.8900    -3.2040 H          0 URE       0.170125
     76 H11          5.4480     4.1660     1.4090 H          0 URE       0.170125
     77 H12          6.5400     3.5550     3.4960 H          0 URE       0.129750
     78 H13          7.2520     1.2550     3.9270 H          0 URE       0.129750
     79 H14          6.8770    -0.5150     2.3110 H          0 URE       0.170125
     80 H15          2.8060     3.0090    -2.2880 H          0 URE       0.308250
     81 H16          2.1200     5.5250    -2.2700 H          0 URE       0.089700
     82 H17          0.1040     4.5000    -2.5410 H          0 URE       0.071575
     83 H18          0.5250     3.1910    -1.4130 H          0 URE       0.071575
     84 H19         -2.7630     3.6630     1.3110 H          0 URE       0.071575
     85 H20         -3.2280     5.3710     1.1540 H          0 URE       0.071575
     86 H21         -4.9770     4.1390    -0.5980 H          0 URE       0.089700
     87 H22         -4.5150     2.1700     1.6120 H          0 URE       0.308250
     88 H23         -6.6860     0.9620    -2.3150 H          0 URE       0.170125
     89 H24         -7.0180    -0.5410    -4.1950 H          0 URE       0.129750
     90 H25         -6.3110    -2.8760    -4.0960 H          0 URE       0.129750
     91 H26         -5.2820    -3.8100    -2.1090 H          0 URE       0.170125
     92 H27         -4.5260    -3.3260     2.7380 H          0 URE       0.170125
     93 H28         -4.7730    -1.9600     4.7360 H          0 URE       0.129750
     94 H29         -5.2730     0.4260     4.5880 H          0 URE       0.129750
     95 H30         -5.5590     1.5360     2.4490 H          0 URE       0.170125
     96 H31         -2.9430    -3.5750    -1.4690 H          0 URE       0.308250
@<TRIPOS>BOND
     1     1     2 1   
     2     2     3 1   
     3     2     4 1   
     4     4     5 1   
     5     4    55 1   
     6     4    65 1   
     7     5     6 1   
     8     5    66 1   
     9     5    67 1   
    10     6     7 1   
    11     7     8 1   
    12     8     9 1   
    13     8    68 1   
    14     8    69 1   
    15     9    10 1   
    16     9    62 1   
    17     9    70 1   
    18    10    11 1   
    19    10    71 1   
    20    11    12 2   
    21    11    13 1   
    22    13    14 ar  
    23    13    26 ar  
    24    14    15 ar  
    25    14    19 ar  
    26    15    16 ar  
    27    15    72 1   
    28    16    17 ar  
    29    16    73 1   
    30    17    18 ar  
    31    17    74 1   
    32    18    19 ar  
    33    18    75 1   
    34    19    20 ar  
    35    20    21 ar  
    36    20    27 1   
    37    21    22 ar  
    38    21    26 ar  
    39    22    23 ar  
    40    22    76 1   
    41    23    24 ar  
    42    23    77 1   
    43    24    25 ar  
    44    24    78 1   
    45    25    26 ar  
    46    25    79 1   
    47    27    28 2   
    48    27    29 1   
    49    29    30 1   
    50    29    80 1   
    51    30    31 1   
    52    30    59 1   
    53    30    81 1   
    54    31    32 1   
    55    31    82 1   
    56    31    83 1   
    57    32    33 1   
    58    33    34 1   
    59    34    35 1   
    60    34    84 1   
    61    34    85 1   
    62    35    36 1   
    63    35    56 1   
    64    35    86 1   
    65    36    37 1   
    66    36    87 1   
    67    37    38 2   
    68    37    39 1   
    69    39    40 ar  
    70    39    52 ar  
    71    40    41 ar  
    72    40    45 ar  
    73    41    42 ar  
    74    41    88 1   
    75    42    43 ar  
    76    42    89 1   
    77    43    44 ar  
    78    43    90 1   
    79    44    45 ar  
    80    44    91 1   
    81    45    46 ar  
    82    46    47 ar  
    83    46    53 1   
    84    47    48 ar  
    85    47    52 ar  
    86    48    49 ar  
    87    48    92 1   
    88    49    50 ar  
    89    49    93 1   
    90    50    51 ar  
    91    50    94 1   
    92    51    52 ar  
    93    51    95 1   
    94    53    54 2   
    95    53    55 1   
    96    55    96 1   
    97    56    57 1   
    98    56    58 1   
    99    59    60 1   
   100    59    61 1   
   101    62    63 1   
   102    62    64 1   
@<TRIPOS>SUBSTRUCTURE
     1 URE         1 TEMP              0 ****  ****    0 ROOT
