@<TRIPOS>MOLECULE
5
   62    66     1     0     0
SMALL
bcc


@<TRIPOS>ATOM
      1 C1           4.6780    -0.9910     1.9910 C          1 5        -0.087100
      2 C2           3.9770    -0.5260     0.6870 C          1 5         0.038600
      3 C3           5.1170    -0.3060    -0.3410 C          1 5        -0.087100
      4 C4           3.1840     0.7610     1.0280 C          1 5        -0.063300
      5 C5           3.4670     2.0110     0.4540 C          1 5        -0.124500
      6 C6           2.6690     3.1290     0.7340 C          1 5        -0.108000
      7 C7           1.5690     3.0280     1.5900 C          1 5         0.031400
      8 C8           1.3100     1.8050     2.2080 C          1 5        -0.108000
      9 C9           2.0970     0.6860     1.9240 C          1 5        -0.124500
     10 N1           0.7210     4.1330     1.8370 N          1 5        -0.132400
     11 N2           0.0490     4.4830     0.8300 N          1 5        -0.132400
     12 C10         -0.9790     3.5710     0.4960 C          1 5         0.031400
     13 C11         -0.8960     2.8350    -0.6860 C          1 5        -0.108000
     14 C12         -1.8680     1.8820    -0.9980 C          1 5        -0.124500
     15 C13         -2.9690     1.6500    -0.1480 C          1 5        -0.063300
     16 C14         -3.0700     2.4350     1.0120 C          1 5        -0.124500
     17 C15         -2.0870     3.3830     1.3270 C          1 5        -0.108000
     18 C16         -3.9770     0.5260    -0.5010 C          1 5         0.038600
     19 C17         -5.1130     0.3540     0.5410 C          1 5        -0.087100
     20 C18         -4.6830     0.9420    -1.8180 C          1 5        -0.087100
     21 C19         -3.2310    -0.8290    -0.5920 C          1 5        -0.063300
     22 C20         -2.5180    -1.3010     0.5300 C          1 5        -0.124500
     23 C21         -1.7730    -2.4820     0.4740 C          1 5        -0.108000
     24 C22         -1.6980    -3.2170    -0.7100 C          1 5         0.031400
     25 C23         -2.4340    -2.7840    -1.8160 C          1 5        -0.108000
     26 C24         -3.1900    -1.6060    -1.7610 C          1 5        -0.124500
     27 N3          -0.8840    -4.3720    -0.7680 N          1 5        -0.132400
     28 N4           0.1140    -4.2430    -1.5260 N          1 5        -0.132400
     29 C25          1.1080    -3.3830    -1.0040 C          1 5         0.031400
     30 C26          1.3580    -2.1580    -1.6230 C          1 5        -0.108000
     31 C27          2.2880    -1.2670    -1.0830 C          1 5        -0.124500
     32 C28          3.0150    -1.5820     0.0840 C          1 5        -0.063300
     33 C29          2.7930    -2.8400     0.6670 C          1 5        -0.124500
     34 C30          1.8520    -3.7270     0.1280 C          1 5        -0.108000
     35 H1           3.9680    -1.2470     2.7850 H          1 5         0.042700
     36 H2           5.3300    -0.2030     2.3880 H          1 5         0.042700
     37 H3           5.3060    -1.8740     1.8170 H          1 5         0.042700
     38 H4           5.8710     0.3940     0.0390 H          1 5         0.042700
     39 H5           5.6330    -1.2490    -0.5650 H          1 5         0.042700
     40 H6           4.7540     0.0920    -1.2960 H          1 5         0.042700
     41 H7           4.2950     2.1460    -0.2360 H          1 5         0.140500
     42 H8           2.8930     4.0830     0.2630 H          1 5         0.144000
     43 H9           0.4650     1.7110     2.8840 H          1 5         0.144000
     44 H10          1.8320    -0.2610     2.3900 H          1 5         0.140500
     45 H11         -0.0460     2.9760    -1.3480 H          1 5         0.144000
     46 H12         -1.7390     1.2950    -1.9060 H          1 5         0.140500
     47 H13         -3.8960     2.3180     1.7070 H          1 5         0.140500
     48 H14         -2.1740     3.9660     2.2410 H          1 5         0.144000
     49 H15         -4.7350     0.1230     1.5440 H          1 5         0.042700
     50 H16         -5.7230     1.2620     0.6240 H          1 5         0.042700
     51 H17         -5.7860    -0.4650     0.2570 H          1 5         0.042700
     52 H18         -3.9870     1.0320    -2.6610 H          1 5         0.042700
     53 H19         -5.1770     1.9160    -1.7090 H          1 5         0.042700
     54 H20         -5.4530     0.2180    -2.1070 H          1 5         0.042700
     55 H21         -2.5100    -0.7320     1.4580 H          1 5         0.140500
     56 H22         -1.2140    -2.8090     1.3460 H          1 5         0.144000
     57 H23         -2.4000    -3.3620    -2.7380 H          1 5         0.144000
     58 H24         -3.7240    -1.3100    -2.6590 H          1 5         0.140500
     59 H25          0.7950    -1.8780    -2.5100 H          1 5         0.144000
     60 H26          2.4180    -0.3010    -1.5690 H          1 5         0.140500
     61 H27          3.3250    -3.1540     1.5600 H          1 5         0.140500
     62 H28          1.6800    -4.6880     0.6070 H          1 5         0.144000
@<TRIPOS>BOND
     1     1     2 1   
     2     1    35 1   
     3     1    36 1   
     4     1    37 1   
     5     2     3 1   
     6     2     4 1   
     7     2    32 1   
     8     3    38 1   
     9     3    39 1   
    10     3    40 1   
    11     4     5 ar  
    12     4     9 ar  
    13     5     6 ar  
    14     5    41 1   
    15     6     7 ar  
    16     6    42 1   
    17     7     8 ar  
    18     7    10 1   
    19     8     9 ar  
    20     8    43 1   
    21     9    44 1   
    22    10    11 2   
    23    11    12 1   
    24    12    13 ar  
    25    12    17 ar  
    26    13    14 ar  
    27    13    45 1   
    28    14    15 ar  
    29    14    46 1   
    30    15    16 ar  
    31    15    18 1   
    32    16    17 ar  
    33    16    47 1   
    34    17    48 1   
    35    18    19 1   
    36    18    20 1   
    37    18    21 1   
    38    19    49 1   
    39    19    50 1   
    40    19    51 1   
    41    20    52 1   
    42    20    53 1   
    43    20    54 1   
    44    21    22 ar  
    45    21    26 ar  
    46    22    23 ar  
    47    22    55 1   
    48    23    24 ar  
    49    23    56 1   
    50    24    25 ar  
    51    24    27 1   
    52    25    26 ar  
    53    25    57 1   
    54    26    58 1   
    55    27    28 2   
    56    28    29 1   
    57    29    30 ar  
    58    29    34 ar  
    59    30    31 ar  
    60    30    59 1   
    61    31    32 ar  
    62    31    60 1   
    63    32    33 ar  
    64    33    34 ar  
    65    33    61 1   
    66    34    62 1   
@<TRIPOS>SUBSTRUCTURE
     1 5           1 TEMP              0 ****  ****    0 ROOT
