@<TRIPOS>MOLECULE
ASB
  114   120     1     0     0
SMALL
bcc


@<TRIPOS>ATOM
      1 C1           3.9790     4.5990    -4.7360 C          1 ASB       0.111700
      2 O1           2.8770     4.0690    -3.9800 O          1 ASB      -0.386900
      3 C2           1.7190     4.7430    -4.2820 C          1 ASB       0.115100
      4 C3           0.8810     4.2610    -5.3070 C          1 ASB      -0.138050
      5 C4          -0.3030     4.9650    -5.5910 C          1 ASB      -0.094250
      6 C5          -0.6700     6.0980    -4.8530 C          1 ASB      -0.054800
      7 C6          -1.9010     6.8780    -5.2210 C          1 ASB      -0.073800
      8 C7           0.1680     6.5450    -3.8240 C          1 ASB      -0.094250
      9 C8           1.3680     5.8780    -3.5210 C          1 ASB      -0.138050
     10 C9           2.2250     6.4010    -2.3920 C          1 ASB       0.136300
     11 N1           1.7510     5.9240    -1.1020 N           1 ASB      -0.531400
     12 C10          2.5520     6.0070     0.0120 C           1 ASB       0.657950
     13 O2           3.6820     6.4770     0.0220 O           1 ASB      -0.545350
     14 C11          2.0630     5.3930     1.2710 C          1 ASB      -0.119100
     15 C12          0.7400     5.0420     1.5060 C          1 ASB      -0.004750
     16 C13          0.4360     4.2850     2.6350 C          1 ASB      -0.117500
     17 C14          1.4470     3.8880     3.5350 C          1 ASB      -0.010550
     18 C15          1.1990     2.7550     4.4520 C          1 ASB      -0.010550
     19 C16          1.6610     1.4690     4.0960 C          1 ASB      -0.117500
     20 C17          1.1390     0.3280     4.6990 C          1 ASB      -0.004750
     21 C18          0.1440     0.4710     5.6570 C          1 ASB      -0.119100
     22 C19         -0.2330     1.7590     6.0550 C          1 ASB       0.041200
     23 N2           0.2940     2.8740     5.4700 N          1 ASB       0.052400
     24 C20         -0.1770     4.1880     5.9810 C          1 ASB      -0.044650
     25 C21         -0.6620    -0.6590     6.1850 C           1 ASB       0.657950
     26 O3          -1.6510    -0.3730     6.8480 O           1 ASB      -0.545350
     27 N3          -0.3020    -1.9400     5.8370 N           1 ASB      -0.531400
     28 C22         -1.1090    -3.0740     6.2710 C          1 ASB       0.136300
     29 C23         -0.8660    -4.2870     5.4050 C          1 ASB      -0.138050
     30 C24          0.3040    -5.0390     5.6110 C          1 ASB      -0.094250
     31 C25          0.5980    -6.1570     4.8220 C          1 ASB      -0.054800
     32 C26          1.8410    -6.9580     5.0890 C          1 ASB      -0.073800
     33 C27         -0.2900    -6.5300     3.8070 C          1 ASB      -0.094250
     34 C28         -1.4750    -5.8100     3.5740 C          1 ASB      -0.138050
     35 C29         -2.3730    -6.2490     2.4410 C          1 ASB       0.136300
     36 N4          -1.8670    -5.7760     1.1620 N           1 ASB      -0.531400
     37 C30         -2.5410    -6.0650    -0.0010 C           1 ASB       0.657950
     38 O4          -3.5310    -6.7750    -0.0870 O           1 ASB      -0.545350
     39 C31         -2.0740    -5.3870    -1.2310 C          1 ASB      -0.119100
     40 C32         -0.7670    -4.9530    -1.3990 C          1 ASB      -0.004750
     41 C33         -0.4510    -4.2010    -2.5240 C          1 ASB      -0.117500
     42 C34         -1.4360    -3.8910    -3.4870 C          1 ASB      -0.010550
     43 C35         -1.1880    -2.7870    -4.4360 C          1 ASB      -0.010550
     44 C36         -1.7150    -1.5080    -4.1580 C          1 ASB      -0.117500
     45 C37         -1.1800    -0.3690    -4.7540 C          1 ASB      -0.004750
     46 C38         -0.1130    -0.5080    -5.6320 C          1 ASB      -0.119100
     47 C39          0.3200    -1.7950    -5.9730 C          1 ASB       0.041200
     48 N5          -0.2150    -2.9080    -5.3910 N          1 ASB       0.052400
     49 C40          0.3280    -4.2250    -5.8200 C          1 ASB      -0.044650
     50 C41          0.7180     0.6260    -6.1120 C           1 ASB       0.657950
     51 O5           1.7330     0.3480    -6.7390 O           1 ASB      -0.545350
     52 N6           0.3580     1.9050    -5.7560 N           1 ASB      -0.531400
     53 C42          1.2050     3.0320    -6.1240 C          1 ASB       0.136300
     54 N7          -2.6920    -4.4180    -3.3470 N          1 ASB       0.052400
     55 C43         -3.7640    -4.2230    -4.3600 C          1 ASB      -0.044650
     56 C44         -3.0100    -5.1530    -2.2400 C          1 ASB       0.041200
     57 C45         -1.7580    -4.6990     4.3930 C          1 ASB       0.115100
     58 O6          -2.8910    -3.9600     4.1510 O          1 ASB      -0.386900
     59 C46         -3.9870    -4.4520     4.9420 C          1 ASB       0.111700
     60 N8           2.7210     4.3520     3.3450 N          1 ASB       0.052400
     61 C47          3.8300     4.0830     4.2980 C          1 ASB      -0.044650
     62 C48          3.0270     5.0840     2.2350 C          1 ASB       0.041200
     63 H1           4.9020     4.2970    -4.2300 H          1 ASB       0.056867
     64 H2           3.9630     5.6950    -4.7950 H          1 ASB       0.056867
     65 H3           3.9870     4.1740    -5.7470 H          1 ASB       0.056867
     66 H4          -0.9360     4.6420    -6.4170 H          1 ASB       0.154750
     67 H5          -1.6410     7.6750    -5.9250 H          1 ASB       0.068367
     68 H6          -2.6470     6.2280    -5.6900 H          1 ASB       0.068367
     69 H7          -2.3620     7.3200    -4.3330 H          1 ASB       0.068367
     70 H8          -0.1040     7.4430    -3.2700 H          1 ASB       0.154750
     71 H9           2.1970     7.4980    -2.3710 H          1 ASB       0.091325
     72 H10          3.2770     6.1240    -2.5140 H          1 ASB       0.091325
     73 H11          0.8070     5.5720    -1.0860 H          1 ASB       0.320750
     74 H12         -0.0540     5.3050     0.8100 H          1 ASB       0.205250
     75 H13         -0.5900     3.9310     2.7510 H          1 ASB       0.194750
     76 H14          2.3620     1.3390     3.2700 H          1 ASB       0.194750
     77 H15          1.4580    -0.6500     4.3440 H          1 ASB       0.205250
     78 H16         -1.0020     1.9150     6.8120 H          1 ASB       0.264500
     79 H17          0.6470     4.9040     5.9230 H          1 ASB       0.117033
     80 H18         -0.4740     4.0820     7.0280 H          1 ASB       0.117033
     81 H19         -1.0260     4.5000     5.3690 H          1 ASB       0.117033
     82 H20          0.6360    -2.1650     5.5420 H          1 ASB       0.320750
     83 H21         -0.8340    -3.2940     7.3100 H          1 ASB       0.091325
     84 H22         -2.1630    -2.7800     6.2850 H          1 ASB       0.091325
     85 H23          0.9900    -4.7630     6.4130 H          1 ASB       0.154750
     86 H24          1.9600    -7.7700     4.3650 H          1 ASB       0.068367
     87 H25          1.7970    -7.4040     6.0880 H          1 ASB       0.068367
     88 H26          2.7250    -6.3160     5.0190 H          1 ASB       0.068367
     89 H27         -0.0690    -7.4080     3.2000 H          1 ASB       0.154750
     90 H28         -2.4420    -7.3430     2.4080 H          1 ASB       0.091325
     91 H29         -3.3950    -5.8780     2.5540 H          1 ASB       0.091325
     92 H30         -1.2190    -5.0050     1.2190 H          1 ASB       0.320750
     93 H31          0.0010    -5.1700    -0.6570 H          1 ASB       0.205250
     94 H32          0.5570    -3.7900    -2.6010 H          1 ASB       0.194750
     95 H33         -2.4790    -1.3740    -3.3900 H          1 ASB       0.194750
     96 H34         -1.5550     0.6070    -4.4550 H          1 ASB       0.205250
     97 H35          1.1420    -1.9510    -6.6720 H          1 ASB       0.264500
     98 H36         -0.4850    -4.9560    -5.8200 H          1 ASB       0.117033
     99 H37          1.1210    -4.5030    -5.1220 H          1 ASB       0.117033
    100 H38          0.7230    -4.1410    -6.8360 H          1 ASB       0.117033
    101 H39         -0.5820     2.1390    -5.4740 H          1 ASB       0.320750
    102 H40          2.2520     2.7310    -6.0200 H          1 ASB       0.091325
    103 H41          1.0430     3.2370    -7.1890 H          1 ASB       0.091325
    104 H42         -4.2670    -3.2800    -4.1290 H          1 ASB       0.117033
    105 H43         -3.3100    -4.2050    -5.3540 H          1 ASB       0.117033
    106 H44         -4.4660    -5.0580    -4.3070 H          1 ASB       0.117033
    107 H45         -4.0360    -5.5140    -2.1540 H          1 ASB       0.264500
    108 H46         -4.8350    -3.7790     4.7830 H          1 ASB       0.056867
    109 H47         -3.7470    -4.4500     6.0120 H          1 ASB       0.056867
    110 H48         -4.2820    -5.4580     4.6270 H          1 ASB       0.056867
    111 H49          4.3220     3.1610     3.9790 H          1 ASB       0.117033
    112 H50          4.5270     4.9260     4.2800 H          1 ASB       0.117033
    113 H51          3.4190     3.9900     5.3050 H          1 ASB       0.117033
    114 H52          4.0700     5.3740     2.1080 H          1 ASB       0.264500
@<TRIPOS>BOND
     1     1     2 1   
     2     1    63 1   
     3     1    64 1   
     4     1    65 1   
     5     2     3 1   
     6     3     4 ar  
     7     3     9 ar  
     8     4     5 ar  
     9     4    53 1   
    10     5     6 ar  
    11     5    66 1   
    12     6     7 1   
    13     6     8 ar  
    14     7    67 1   
    15     7    68 1   
    16     7    69 1   
    17     8     9 ar  
    18     8    70 1   
    19     9    10 1   
    20    10    11 1   
    21    10    71 1   
    22    10    72 1   
    23    11    12 1   
    24    11    73 1   
    25    12    13 2   
    26    12    14 1   
    27    14    15 1   
    28    14    62 2   
    29    15    16 2   
    30    15    74 1   
    31    16    17 1   
    32    16    75 1   
    33    17    18 2   
    34    17    60 1   
    35    18    19 1   
    36    18    23 1   
    37    19    20 2   
    38    19    76 1   
    39    20    21 1   
    40    20    77 1   
    41    21    22 2   
    42    21    25 1   
    43    22    23 1   
    44    22    78 1   
    45    23    24 1   
    46    24    79 1   
    47    24    80 1   
    48    24    81 1   
    49    25    26 2   
    50    25    27 1   
    51    27    28 1   
    52    27    82 1   
    53    28    29 1   
    54    28    83 1   
    55    28    84 1   
    56    29    30 ar  
    57    29    57 ar  
    58    30    31 ar  
    59    30    85 1   
    60    31    32 1   
    61    31    33 ar  
    62    32    86 1   
    63    32    87 1   
    64    32    88 1   
    65    33    34 ar  
    66    33    89 1   
    67    34    35 1   
    68    34    57 ar  
    69    35    36 1   
    70    35    90 1   
    71    35    91 1   
    72    36    37 1   
    73    36    92 1   
    74    37    38 2   
    75    37    39 1   
    76    39    40 1   
    77    39    56 2   
    78    40    41 2   
    79    40    93 1   
    80    41    42 1   
    81    41    94 1   
    82    42    43 2   
    83    42    54 1   
    84    43    44 1   
    85    43    48 1   
    86    44    45 2   
    87    44    95 1   
    88    45    46 1   
    89    45    96 1   
    90    46    47 2   
    91    46    50 1   
    92    47    48 1   
    93    47    97 1   
    94    48    49 1   
    95    49    98 1   
    96    49    99 1   
    97    49   100 1   
    98    50    51 2   
    99    50    52 1   
   100    52    53 1   
   101    52   101 1   
   102    53   102 1   
   103    53   103 1   
   104    54    55 1   
   105    54    56 1   
   106    55   104 1   
   107    55   105 1   
   108    55   106 1   
   109    56   107 1   
   110    57    58 1   
   111    58    59 1   
   112    59   108 1   
   113    59   109 1   
   114    59   110 1   
   115    60    61 1   
   116    60    62 1   
   117    61   111 1   
   118    61   112 1   
   119    61   113 1   
   120    62   114 1   
@<TRIPOS>SUBSTRUCTURE
     1 ASB         1 TEMP              0 ****  ****    0 ROOT
