@<TRIPOS>MOLECULE
86
   96   106     1     0     0
SMALL
bcc


@<TRIPOS>ATOM
      1 C1          -6.4580     0.8300     2.9880 C          1 86       -0.068500
      2 C2          -6.4060    -0.5340     3.1600 C          1 86       -0.068500
      3 C3          -5.9880    -1.3400     2.1030 C          1 86       -0.166500
      4 C4          -5.5870    -0.8200     0.8410 C          1 86       -0.005000
      5 C5          -5.1480    -1.6550    -0.2380 C          1 86       -0.111300
      6 C6          -4.8750    -3.1500    -0.0010 C          1 86        0.033600
      7 N1          -3.4020    -3.3880     0.1730 N          1 86        0.050900
      8 C7          -2.7690    -2.9010     1.2650 C          1 86       -0.012300
      9 C8          -1.3790    -2.9680     1.3770 C          1 86       -0.128000
     10 C9          -0.6060    -3.5630     0.3740 C          1 86        0.037000
     11 C10         -1.3050    -4.1540    -0.6860 C          1 86       -0.128000
     12 C11         -2.6990    -4.0700    -0.7620 C          1 86       -0.012300
     13 C12          0.8750    -3.5020     0.4110 C          1 86        0.037000
     14 C13          1.6110    -3.1180    -0.7160 C          1 86       -0.128000
     15 C14          2.9910    -2.9210    -0.6370 C          1 86       -0.012300
     16 N2           3.6480    -3.0740     0.5360 N          1 86        0.050900
     17 C15          2.9900    -3.5540     1.6170 C          1 86       -0.012300
     18 C16          1.6060    -3.7580     1.5770 C          1 86       -0.128000
     19 C17          5.0980    -2.6900     0.6320 C          1 86        0.033600
     20 C18          5.2550    -1.1670     0.4880 C          1 86       -0.111300
     21 C19          5.6410    -0.5940    -0.7680 C          1 86       -0.005000
     22 C20          6.0920    -1.3790    -1.8660 C          1 86       -0.166500
     23 C21          6.4580    -0.8300    -3.0930 C          1 86       -0.068500
     24 C22          6.4060     0.5340    -3.2640 C          1 86       -0.068500
     25 C23          5.9880     1.3400    -2.2080 C          1 86       -0.166500
     26 C24          5.5870     0.8200    -0.9460 C          1 86       -0.005000
     27 C25          5.1480     1.6550     0.1330 C          1 86       -0.111300
     28 C26          4.8750     3.1500    -0.1030 C          1 86        0.033600
     29 N3           3.4020     3.3880    -0.2770 N          1 86        0.050900
     30 C27          2.7690     2.9010    -1.3690 C          1 86       -0.012300
     31 C28          1.3790     2.9680    -1.4820 C          1 86       -0.128000
     32 C29          0.6060     3.5630    -0.4780 C          1 86        0.037000
     33 C30          1.3050     4.1540     0.5810 C          1 86       -0.128000
     34 C31          2.6990     4.0700     0.6580 C          1 86       -0.012300
     35 C32         -0.8750     3.5020    -0.5150 C          1 86        0.037000
     36 C33         -1.6060     3.7580    -1.6810 C          1 86       -0.128000
     37 C34         -2.9900     3.5530    -1.7210 C          1 86       -0.012300
     38 N4          -3.6480     3.0740    -0.6400 N          1 86        0.050900
     39 C35         -2.9910     2.9210     0.5320 C          1 86       -0.012300
     40 C36         -1.6110     3.1180     0.6110 C          1 86       -0.128000
     41 C37         -5.0980     2.6900    -0.7360 C          1 86        0.033600
     42 C38         -5.2550     1.1670    -0.5930 C          1 86       -0.111300
     43 C39         -5.6400     0.5940     0.6630 C          1 86       -0.005000
     44 C40         -6.0920     1.3790     1.7610 C          1 86       -0.166500
     45 C41         -4.9510     0.3210    -1.7070 C          1 86       -0.005000
     46 C42         -4.7190     0.8290    -3.0150 C          1 86       -0.166500
     47 C43         -4.4200     0.0150    -4.1060 C          1 86       -0.068500
     48 C44         -4.3680    -1.3490    -3.9340 C          1 86       -0.068500
     49 C45         -4.6150    -1.8870    -2.6730 C          1 86       -0.166500
     50 C46         -4.8970    -1.0900    -1.5300 C          1 86       -0.005000
     51 C47          4.8970     1.0900     1.4250 C          1 86       -0.005000
     52 C48          4.6150     1.8870     2.5680 C          1 86       -0.166500
     53 C49          4.3680     1.3490     3.8300 C          1 86       -0.068500
     54 C50          4.4200    -0.0150     4.0010 C          1 86       -0.068500
     55 C51          4.7180    -0.8290     2.9100 C          1 86       -0.166500
     56 C52          4.9510    -0.3210     1.6030 C          1 86       -0.005000
     57 H1          -6.8240     1.4670     3.7930 H          1 86        0.181000
     58 H2          -6.7310    -0.9770     4.1010 H          1 86        0.181000
     59 H3          -6.0430    -2.4050     2.3120 H          1 86        0.132500
     60 H4          -5.2460    -3.7660    -0.8250 H          1 86        0.130200
     61 H5          -5.3510    -3.5680     0.8870 H          1 86        0.130200
     62 H6          -3.3730    -2.4300     2.0340 H          1 86        0.229500
     63 H7          -0.9120    -2.5150     2.2510 H          1 86        0.203500
     64 H8          -0.7750    -4.6860    -1.4760 H          1 86        0.203500
     65 H9          -3.2480    -4.5250    -1.5820 H          1 86        0.229500
     66 H10          1.1200    -2.9310    -1.6700 H          1 86        0.203500
     67 H11          3.5650    -2.6120    -1.5050 H          1 86        0.229500
     68 H12          3.5630    -3.7500     2.5190 H          1 86        0.229500
     69 H13          1.1110    -4.1160     2.4800 H          1 86        0.203500
     70 H14          5.6120    -3.2780    -0.1300 H          1 86        0.130200
     71 H15          5.5060    -3.0540     1.5790 H          1 86        0.130200
     72 H16          6.2280    -2.4550    -1.8040 H          1 86        0.132500
     73 H17          6.8250    -1.4670    -3.8980 H          1 86        0.181000
     74 H18          6.7320     0.9770    -4.2050 H          1 86        0.181000
     75 H19          6.0440     2.4050    -2.4160 H          1 86        0.132500
     76 H20          5.3510     3.5680    -0.9910 H          1 86        0.130200
     77 H21          5.2460     3.7660     0.7210 H          1 86        0.130200
     78 H22          3.3730     2.4290    -2.1390 H          1 86        0.229500
     79 H23          0.9120     2.5150    -2.3550 H          1 86        0.203500
     80 H24          0.7750     4.6860     1.3720 H          1 86        0.203500
     81 H25          3.2480     4.5260     1.4780 H          1 86        0.229500
     82 H26         -1.1110     4.1160    -2.5840 H          1 86        0.203500
     83 H27         -3.5630     3.7500    -2.6240 H          1 86        0.229500
     84 H28         -3.5650     2.6120     1.4000 H          1 86        0.229500
     85 H29         -1.1200     2.9310     1.5660 H          1 86        0.203500
     86 H30         -5.5060     3.0540    -1.6830 H          1 86        0.130200
     87 H31         -5.6120     3.2780     0.0250 H          1 86        0.130200
     88 H32         -6.2280     2.4560     1.7000 H          1 86        0.132500
     89 H33         -4.8290     1.8810    -3.2570 H          1 86        0.132500
     90 H34         -4.2850     0.4450    -5.0980 H          1 86        0.181000
     91 H35         -4.1920    -1.9990    -4.7900 H          1 86        0.181000
     92 H36         -4.6440    -2.9710    -2.6470 H          1 86        0.132500
     93 H37          4.6440     2.9710     2.5420 H          1 86        0.132500
     94 H38          4.1920     1.9990     4.6860 H          1 86        0.181000
     95 H39          4.2850    -0.4450     4.9930 H          1 86        0.181000
     96 H40          4.8290    -1.8810     3.1530 H          1 86        0.132500
@<TRIPOS>BOND
     1     1     2 ar  
     2     1    44 ar  
     3     1    57 1   
     4     2     3 ar  
     5     2    58 1   
     6     3     4 ar  
     7     3    59 1   
     8     4     5 ar  
     9     4    43 ar  
    10     5     6 1   
    11     5    50 ar  
    12     6     7 1   
    13     6    60 1   
    14     6    61 1   
    15     7     8 1   
    16     7    12 1   
    17     8     9 2   
    18     8    62 1   
    19     9    10 1   
    20     9    63 1   
    21    10    11 1   
    22    10    13 2   
    23    11    12 2   
    24    11    64 1   
    25    12    65 1   
    26    13    14 1   
    27    13    18 1   
    28    14    15 2   
    29    14    66 1   
    30    15    16 1   
    31    15    67 1   
    32    16    17 1   
    33    16    19 1   
    34    17    18 2   
    35    17    68 1   
    36    18    69 1   
    37    19    20 1   
    38    19    70 1   
    39    19    71 1   
    40    20    21 ar  
    41    20    56 ar  
    42    21    22 ar  
    43    21    26 ar  
    44    22    23 ar  
    45    22    72 1   
    46    23    24 ar  
    47    23    73 1   
    48    24    25 ar  
    49    24    74 1   
    50    25    26 ar  
    51    25    75 1   
    52    26    27 ar  
    53    27    28 1   
    54    27    51 ar  
    55    28    29 1   
    56    28    76 1   
    57    28    77 1   
    58    29    30 1   
    59    29    34 1   
    60    30    31 2   
    61    30    78 1   
    62    31    32 1   
    63    31    79 1   
    64    32    33 1   
    65    32    35 2   
    66    33    34 2   
    67    33    80 1   
    68    34    81 1   
    69    35    36 1   
    70    35    40 1   
    71    36    37 2   
    72    36    82 1   
    73    37    38 1   
    74    37    83 1   
    75    38    39 1   
    76    38    41 1   
    77    39    40 2   
    78    39    84 1   
    79    40    85 1   
    80    41    42 1   
    81    41    86 1   
    82    41    87 1   
    83    42    43 ar  
    84    42    45 ar  
    85    43    44 ar  
    86    44    88 1   
    87    45    46 ar  
    88    45    50 ar  
    89    46    47 ar  
    90    46    89 1   
    91    47    48 ar  
    92    47    90 1   
    93    48    49 ar  
    94    48    91 1   
    95    49    50 ar  
    96    49    92 1   
    97    51    52 ar  
    98    51    56 ar  
    99    52    53 ar  
   100    52    93 1   
   101    53    54 ar  
   102    53    94 1   
   103    54    55 ar  
   104    54    95 1   
   105    55    56 ar  
   106    55    96 1   
@<TRIPOS>SUBSTRUCTURE
     1 86          1 TEMP              0 ****  ****    0 ROOT
