@<TRIPOS>MOLECULE
124
  108   117     1     0     0
SMALL
bcc


@<TRIPOS>ATOM
      1 S1           1.8560     0.5280     2.8400 S           1 124      -0.568733
      2 C1           2.9360     0.2390     1.6030 C           1 124       0.550400
      3 N1           2.8220    -0.7530     0.5950 N           1 124      -0.412133
      4 C2           1.5320    -1.2940     0.1600 C          1 124       0.132800
      5 C3           0.9650    -2.3840     1.0380 C          1 124      -0.103467
      6 C4           1.7140    -3.5230     1.3540 C          1 124      -0.115167
      7 C5           1.1570    -4.5470     2.1200 C          1 124      -0.131333
      8 C6          -0.1590    -4.4490     2.5710 C          1 124      -0.115167
      9 C7          -0.9370    -3.3250     2.2610 C          1 124      -0.103467
     10 C8          -0.3590    -2.2960     1.5010 C          1 124      -0.110667
     11 C9          -2.3540    -3.2120     2.7780 C          1 124       0.132800
     12 N2          -3.3410    -2.9160     1.7330 N           1 124      -0.412133
     13 C10         -4.0590    -1.7200     1.5750 C           1 124       0.550400
     14 S2          -4.0510    -0.4160     2.6140 S           1 124      -0.568733
     15 N3          -4.7820    -1.8130     0.3740 N           1 124      -0.412133
     16 C11         -5.5200    -0.7370    -0.2920 C          1 124       0.132800
     17 C12         -4.7600    -0.0600    -1.4140 C          1 124      -0.103467
     18 C13         -5.4700     0.5620    -2.4510 C          1 124      -0.115167
     19 C14         -4.7990     1.2510    -3.4640 C          1 124      -0.131333
     20 C15         -3.4070     1.3360    -3.4500 C          1 124      -0.115167
     21 C16         -2.6740     0.7310    -2.4230 C          1 124      -0.103467
     22 C17         -3.3620     0.0400    -1.4130 C          1 124      -0.110667
     23 C18         -1.1700     0.8220    -2.3940 C          1 124       0.132800
     24 N4          -0.6500     2.1470    -2.0520 N           1 124      -0.412133
     25 C19          0.6760     2.5730    -2.3170 C           1 124       0.550400
     26 S3           1.7820     1.7940    -3.2910 S           1 124      -0.568733
     27 N5           0.8810     3.7760    -1.5950 N           1 124      -0.412133
     28 C20          2.0200     4.6800    -1.7590 C          1 124       0.132800
     29 C21          3.0110     4.6510    -0.6140 C          1 124      -0.103467
     30 C22          3.7600     5.8010    -0.3290 C          1 124      -0.115167
     31 C23          4.7200     5.7930     0.6830 C          1 124      -0.131333
     32 C24          4.9570     4.6290     1.4140 C          1 124      -0.115167
     33 C25          4.2450     3.4530     1.1390 C          1 124      -0.103467
     34 C26          3.2690     3.4850     0.1280 C          1 124      -0.110667
     35 C27          4.5170     2.2220     1.9840 C          1 124       0.132800
     36 N6           4.1230     0.9540     1.3680 N           1 124      -0.412133
     37 C28          4.8660     0.4090     0.2450 C          1 124       0.076367
     38 C29          6.1490    -0.2930     0.6910 C          1 124      -0.082900
     39 C30          6.8440    -0.9970    -0.4750 C          1 124      -0.078400
     40 C31          5.8750    -1.6260    -1.4780 C          1 124      -0.078400
     41 C32          4.5010    -1.8750    -0.8700 C          1 124      -0.082900
     42 C33          3.8680    -0.5600    -0.4060 C          1 124       0.076367
     43 C34         -0.3970     4.2400    -1.0610 C          1 124       0.076367
     44 C35         -0.3710     5.1040     0.2000 C          1 124      -0.082900
     45 C36         -0.1790     4.3250     1.4950 C          1 124      -0.078400
     46 C37         -1.1570     3.1640     1.5870 C          1 124      -0.078400
     47 C38         -0.9740     2.2260     0.4050 C          1 124      -0.082900
     48 C39         -1.1950     2.9320    -0.9410 C          1 124       0.076367
     49 C40         -4.5960    -3.1080    -0.2700 C          1 124       0.076367
     50 C41         -5.8920    -3.9200    -0.3170 C          1 124      -0.082900
     51 C42         -5.6570    -5.3470    -0.8100 C          1 124      -0.078400
     52 C43         -4.3880    -5.9920    -0.2500 C          1 124      -0.078400
     53 C44         -3.8290    -5.2380     0.9500 C          1 124      -0.082900
     54 C45         -3.5030    -3.7900     0.5750 C          1 124       0.076367
     55 H1           1.6420    -1.7120    -0.8480 H          1 124       0.079033
     56 H2           0.8320    -0.4570     0.0750 H          1 124       0.079033
     57 H3           2.7400    -3.6160     1.0110 H          1 124       0.135667
     58 H4           1.7530    -5.4210     2.3700 H          1 124       0.133667
     59 H5          -0.5710    -5.2550     3.1740 H          1 124       0.135667
     60 H6          -0.9490    -1.4080     1.2760 H          1 124       0.150000
     61 H7          -2.6650    -4.1520     3.2460 H          1 124       0.079033
     62 H8          -2.3720    -2.4540     3.5670 H          1 124       0.079033
     63 H9          -6.4490    -1.1690    -0.6790 H          1 124       0.079033
     64 H10         -5.8030     0.0310     0.4340 H          1 124       0.079033
     65 H11         -6.5570     0.5230    -2.4720 H          1 124       0.135667
     66 H12         -5.3620     1.7290    -4.2610 H          1 124       0.133667
     67 H13         -2.8930     1.8830    -4.2380 H          1 124       0.135667
     68 H14         -2.7900    -0.4180    -0.6080 H          1 124       0.150000
     69 H15         -0.7890     0.5180    -3.3750 H          1 124       0.079033
     70 H16         -0.7530     0.1100    -1.6720 H          1 124       0.079033
     71 H17          1.6180     5.6910    -1.8910 H          1 124       0.079033
     72 H18          2.5640     4.4400    -2.6780 H          1 124       0.079033
     73 H19          3.6000     6.7160    -0.8960 H          1 124       0.135667
     74 H20          5.2850     6.6950     0.9010 H          1 124       0.133667
     75 H21          5.7040     4.6460     2.2040 H          1 124       0.135667
     76 H22          2.6910     2.5890    -0.0850 H          1 124       0.150000
     77 H23          5.5910     2.1520     2.1930 H          1 124       0.079033
     78 H24          4.0080     2.3510     2.9430 H          1 124       0.079033
     79 H25          5.1130     1.2120    -0.4590 H          1 124       0.071200
     80 H26          6.8430     0.4190     1.1510 H          1 124       0.055200
     81 H27          5.9170    -1.0300     1.4710 H          1 124       0.055200
     82 H28          7.5100    -1.7700    -0.0710 H          1 124       0.047950
     83 H29          7.4890    -0.2870    -1.0060 H          1 124       0.047950
     84 H30          6.2960    -2.5630    -1.8600 H          1 124       0.047950
     85 H31          5.7680    -0.9600    -2.3440 H          1 124       0.047950
     86 H32          3.8490    -2.3650    -1.6020 H          1 124       0.055200
     87 H33          4.6010    -2.5740    -0.0300 H          1 124       0.055200
     88 H34          3.4070    -0.0500    -1.2590 H          1 124       0.071200
     89 H35         -0.8320     4.8430    -1.8720 H          1 124       0.071200
     90 H36          0.3850     5.8930     0.1300 H          1 124       0.055200
     91 H37         -1.3390     5.6190     0.2680 H          1 124       0.055200
     92 H38          0.8470     3.9490     1.5610 H          1 124       0.047950
     93 H39         -0.3230     4.9960     2.3490 H          1 124       0.047950
     94 H40         -2.1870     3.5390     1.6110 H          1 124       0.047950
     95 H41         -0.9930     2.6180     2.5220 H          1 124       0.047950
     96 H42         -1.6630     1.3820     0.5060 H          1 124       0.055200
     97 H43          0.0340     1.7970     0.4420 H          1 124       0.055200
     98 H44         -2.2610     3.1280    -1.0990 H          1 124       0.071200
     99 H45         -4.2230    -2.9470    -1.2890 H          1 124       0.071200
    100 H46         -6.6310    -3.4350    -0.9640 H          1 124       0.055200
    101 H47         -6.3450    -3.9530     0.6830 H          1 124       0.055200
    102 H48         -5.6030    -5.3540    -1.9050 H          1 124       0.047950
    103 H49         -6.5280    -5.9580    -0.5450 H          1 124       0.047950
    104 H50         -3.6250    -6.0240    -1.0380 H          1 124       0.047950
    105 H51         -4.5930    -7.0330     0.0220 H          1 124       0.047950
    106 H52         -2.9270    -5.7430     1.3130 H          1 124       0.055200
    107 H53         -4.5530    -5.2710     1.7750 H          1 124       0.055200
    108 H54         -2.5640    -3.7620     0.0080 H          1 124       0.071200
@<TRIPOS>BOND
     1     1     2 2   
     2     2     3 1   
     3     2    36 1   
     4     3     4 1   
     5     3    42 1   
     6     4     5 1   
     7     4    55 1   
     8     4    56 1   
     9     5     6 ar  
    10     5    10 ar  
    11     6     7 ar  
    12     6    57 1   
    13     7     8 ar  
    14     7    58 1   
    15     8     9 ar  
    16     8    59 1   
    17     9    10 ar  
    18     9    11 1   
    19    10    60 1   
    20    11    12 1   
    21    11    61 1   
    22    11    62 1   
    23    12    13 1   
    24    12    54 1   
    25    13    14 2   
    26    13    15 1   
    27    15    16 1   
    28    15    49 1   
    29    16    17 1   
    30    16    63 1   
    31    16    64 1   
    32    17    18 ar  
    33    17    22 ar  
    34    18    19 ar  
    35    18    65 1   
    36    19    20 ar  
    37    19    66 1   
    38    20    21 ar  
    39    20    67 1   
    40    21    22 ar  
    41    21    23 1   
    42    22    68 1   
    43    23    24 1   
    44    23    69 1   
    45    23    70 1   
    46    24    25 1   
    47    24    48 1   
    48    25    26 2   
    49    25    27 1   
    50    27    28 1   
    51    27    43 1   
    52    28    29 1   
    53    28    71 1   
    54    28    72 1   
    55    29    30 ar  
    56    29    34 ar  
    57    30    31 ar  
    58    30    73 1   
    59    31    32 ar  
    60    31    74 1   
    61    32    33 ar  
    62    32    75 1   
    63    33    34 ar  
    64    33    35 1   
    65    34    76 1   
    66    35    36 1   
    67    35    77 1   
    68    35    78 1   
    69    36    37 1   
    70    37    38 1   
    71    37    42 1   
    72    37    79 1   
    73    38    39 1   
    74    38    80 1   
    75    38    81 1   
    76    39    40 1   
    77    39    82 1   
    78    39    83 1   
    79    40    41 1   
    80    40    84 1   
    81    40    85 1   
    82    41    42 1   
    83    41    86 1   
    84    41    87 1   
    85    42    88 1   
    86    43    44 1   
    87    43    48 1   
    88    43    89 1   
    89    44    45 1   
    90    44    90 1   
    91    44    91 1   
    92    45    46 1   
    93    45    92 1   
    94    45    93 1   
    95    46    47 1   
    96    46    94 1   
    97    46    95 1   
    98    47    48 1   
    99    47    96 1   
   100    47    97 1   
   101    48    98 1   
   102    49    50 1   
   103    49    54 1   
   104    49    99 1   
   105    50    51 1   
   106    50   100 1   
   107    50   101 1   
   108    51    52 1   
   109    51   102 1   
   110    51   103 1   
   111    52    53 1   
   112    52   104 1   
   113    52   105 1   
   114    53    54 1   
   115    53   106 1   
   116    53   107 1   
   117    54   108 1   
@<TRIPOS>SUBSTRUCTURE
     1 124         1 TEMP              0 ****  ****    0 ROOT
