@<TRIPOS>MOLECULE
DAV
  316   326     1     0     0
SMALL
bcc


@<TRIPOS>ATOM
      1 C           13.9690     0.3630    -6.8050 C          0 DAV      -0.186650
      2 C1          11.3150    -3.2170    -1.9800 C          0 DAV      -0.186650
      3 C2           9.2940     5.2270    -6.1630 C          0 DAV      -0.186650
      4 C3          13.2120     1.2440     6.7260 C          0 DAV      -0.186650
      5 C4           9.4210     4.1960     2.1560 C          0 DAV      -0.186650
      6 C5           9.6670    -4.5990     6.2070 C          0 DAV      -0.186650
      7 C6         -11.3650     5.8110     5.2790 C          0 DAV      -0.186650
      8 C7         -10.2320    -0.2780     7.9610 C          0 DAV      -0.186650
      9 C8          -8.0930     4.1010    -0.4560 C          0 DAV      -0.186650
     10 C9         -14.1050    -3.3790    -6.1270 C          0 DAV      -0.186650
     11 C10        -10.6100     2.2720    -7.1790 C          0 DAV      -0.186650
     12 C11        -10.2460    -5.0100    -0.7660 C          0 DAV      -0.186650
     13 C12         12.4620     0.1530    -6.5940 C          0 DAV       0.135983
     14 C13         11.5550    -1.7020    -1.8190 C          0 DAV       0.135983
     15 C14         10.0400     4.6080    -4.9650 C          0 DAV       0.135983
     16 C15         11.6800     1.1340     6.6580 C          0 DAV       0.135983
     17 C16          9.9500     2.7600     1.9820 C          0 DAV       0.135983
     18 C17         10.1520    -3.7540     5.0140 C          0 DAV       0.135983
     19 C18         -9.9900     5.1220     5.1940 C          0 DAV       0.135983
     20 C19        -10.6220    -0.0130     6.4950 C          0 DAV       0.135983
     21 C20         -9.0470     3.1460     0.2860 C          0 DAV       0.135983
     22 C21        -12.5660    -3.3110    -6.1060 C          0 DAV       0.135983
     23 C22        -11.0510     1.7700    -5.7920 C          0 DAV       0.135983
     24 C23        -10.7550    -3.5880    -1.0640 C          0 DAV       0.135983
     25 C24          3.4610    -4.4140    -2.2730 C          0 DAV      -0.108500
     26 C25          3.0800     4.3470     2.1940 C          0 DAV      -0.108500
     27 C26         -3.4770    -5.2450    -1.7490 C          0 DAV      -0.108500
     28 C27         -3.8190     3.2530     1.3790 C          0 DAV      -0.108500
     29 C28          1.2950    -4.0140    -3.1240 C          0 DAV      -0.098125
     30 C29          1.1750     4.3320     0.8030 C          0 DAV      -0.098125
     31 C30          1.5870    -4.9970    -0.9540 C          0 DAV      -0.098125
     32 C31          1.0560     3.4680     3.0380 C          0 DAV      -0.098125
     33 C32         -1.3670    -5.2250    -0.6900 C          0 DAV      -0.098125
     34 C33         -1.8650     3.0050     2.6870 C          0 DAV      -0.098125
     35 C34         -1.6050    -4.5080    -2.9730 C          0 DAV      -0.098125
     36 C35         -1.7470     4.1230     0.5500 C          0 DAV      -0.098125
     37 C36          4.0930     0.7840    -2.7760 C          0 DAV      -0.021250
     38 C37          3.4210    -1.4700     3.0770 C          0 DAV      -0.021250
     39 C38         -4.0660    -1.9160     2.5860 C          0 DAV      -0.021250
     40 C39         -4.2460     0.3040    -3.2820 C          0 DAV      -0.021250
     41 C40          6.3960     0.0570    -3.0410 C          0 DAV      -0.036125
     42 C41          5.9200     2.1180    -1.9660 C          0 DAV      -0.036125
     43 C42          5.5660    -2.1940     2.1860 C          0 DAV      -0.036125
     44 C43          5.4150    -0.1060     3.3780 C          0 DAV      -0.036125
     45 C44         -6.2460    -1.7310     1.5930 C          0 DAV      -0.036125
     46 C45         -5.4010     0.0710     2.9780 C          0 DAV      -0.036125
     47 C46         -6.2390    -1.0550    -3.3700 C          0 DAV      -0.036125
     48 C47         -6.3670     1.2100    -2.5120 C          0 DAV      -0.036125
     49 C48          3.2060    -3.1570    -4.4700 C          0 DAV       0.126675
     50 C49          3.3330     5.0410    -0.2230 C          0 DAV       0.126675
     51 C50          3.8350    -5.4070     0.0310 C          0 DAV       0.126675
     52 C51          3.0870     3.2730     4.4760 C          0 DAV       0.126675
     53 C52         -3.3860    -5.7250     0.7100 C          0 DAV       0.126675
     54 C53         -3.9960     2.1370     3.6700 C          0 DAV       0.126675
     55 C54         -3.8260    -4.5050    -4.1330 C          0 DAV       0.126675
     56 C55         -3.7310     4.4470    -0.9210 C          0 DAV       0.126675
     57 C56         10.6730     0.4880    -5.1700 C          0 DAV       0.118983
     58 C57         10.9820     0.4070    -2.6940 C          0 DAV       0.118983
     59 C58         10.4720     2.6030    -3.8250 C          0 DAV       0.118983
     60 C59          9.8740     0.4210     5.3890 C          0 DAV       0.118983
     61 C60          9.9320     0.6050     2.8920 C          0 DAV       0.118983
     62 C61         10.0280    -1.6620     3.9790 C          0 DAV       0.118983
     63 C62         -8.8450     3.2380     4.4350 C          0 DAV       0.118983
     64 C63        -10.0480     1.0300     4.5060 C          0 DAV       0.118983
     65 C64         -9.4800     2.0770     2.3000 C          0 DAV       0.118983
     66 C65        -10.7110    -2.3370    -5.0490 C          0 DAV       0.118983
     67 C66        -10.8890     0.0370    -4.2480 C          0 DAV       0.118983
     68 C67        -10.7680    -1.8400    -2.5860 C          0 DAV       0.118983
     69 C68          2.6390    -3.8980    -3.2380 C          0 DAV      -0.123675
     70 C69          2.4970     4.5600     0.9800 C          0 DAV      -0.123675
     71 C70          2.9320    -4.9200    -1.1190 C          0 DAV      -0.123675
     72 C71          2.3810     3.7260     3.1850 C          0 DAV      -0.123675
     73 C72         -2.7120    -5.3940    -0.6340 C          0 DAV      -0.123675
     74 C73         -3.2050     2.8270     2.5250 C          0 DAV      -0.123675
     75 C74         -2.9340    -4.7710    -2.9010 C          0 DAV      -0.123675
     76 C75         -3.0740     3.9270     0.3810 C          0 DAV      -0.123675
     77 C76          0.7420    -4.5910    -1.9840 C          0 DAV      -0.040000
     78 C77          0.4140     3.8200     1.8530 C          0 DAV      -0.040000
     79 C78         -0.7830    -4.7800    -1.8760 C          0 DAV      -0.040000
     80 C79         -1.1100     3.6430     1.6940 C          0 DAV      -0.040000
     81 C80          5.0330    -0.1920    -3.1890 C          0 DAV      -0.154475
     82 C81          4.5410     1.9150    -2.1370 C          0 DAV      -0.154475
     83 C82          4.1890    -2.3940     2.3430 C          0 DAV      -0.154475
     84 C83          4.0310    -0.2760     3.5050 C          0 DAV      -0.154475
     85 C84         -5.0460    -2.4400     1.8060 C          0 DAV      -0.154475
     86 C85         -4.2120    -0.6480     3.1630 C          0 DAV      -0.154475
     87 C86         -4.8600    -0.9120    -3.5470 C          0 DAV      -0.154475
     88 C87         -4.9760     1.3240    -2.6690 C          0 DAV      -0.154475
     89 C88          6.8310     1.1970    -2.4800 C          0 DAV      -0.167850
     90 C89          6.1870    -1.0830     2.7510 C          0 DAV      -0.167850
     91 C90         -6.4410    -0.4880     2.2250 C          0 DAV      -0.167850
     92 C91         -7.0050     0.0210    -2.9050 C          0 DAV      -0.167850
     93 C92         14.3820    -0.2500    -8.1550 C           0 DAV       0.632683
     94 C93         12.1880    -3.9920    -0.9760 C           0 DAV       0.632683
     95 C94          9.6090     6.7320    -6.2410 C           0 DAV       0.632683
     96 C95         13.6180     1.9130     8.0510 C           0 DAV       0.632683
     97 C96         10.0200     5.1040     1.0650 C           0 DAV       0.632683
     98 C97         10.2900    -6.0060     6.1220 C           0 DAV       0.632683
     99 C98        -11.2370     7.1170     6.0870 C           0 DAV       0.632683
    100 C99        -11.2940    -1.1850     8.6120 C           0 DAV       0.632683
    101 C100        -8.6470     4.3820    -1.8660 C           0 DAV       0.632683
    102 C101       -14.5600    -4.3200    -7.2590 C           0 DAV       0.632683
    103 C102       -11.2490     3.6470    -7.4530 C           0 DAV       0.632683
    104 C103       -10.8340    -5.4900     0.5760 C           0 DAV       0.632683
    105 C104         4.6750    -1.4360    -3.7480 C           0 DAV       0.665450
    106 C105         3.5840     2.9990    -1.5770 C           0 DAV       0.665450
    107 C106         3.5680    -3.6320     1.6700 C           0 DAV       0.665450
    108 C107         3.2090     0.8880     4.0860 C           0 DAV       0.665450
    109 C108        -4.8140    -3.8250     1.1600 C           0 DAV       0.665450
    110 C109        -3.0710    -0.0540     4.0100 C           0 DAV       0.665450
    111 C110        -4.0290    -2.1150    -4.0000 C           0 DAV       0.665450
    112 C111        -4.1820     2.5310    -2.1610 C           0 DAV       0.665450
    113 C112         7.9980     1.6910    -3.0980 C           0 DAV       0.692950
    114 C113         7.3850    -1.3210     3.4540 C           0 DAV       0.692950
    115 C114        -7.4430     0.1890     2.9500 C           0 DAV       0.692950
    116 C115        -8.2370    -0.1300    -3.5740 C           0 DAV       0.692950
    117 C116        10.2060     1.0860    -3.8350 C          0 DAV       0.110150
    118 C117         9.4320    -0.2440     4.0740 C          0 DAV       0.110150
    119 C118        -8.9990     1.8680     3.7490 C          0 DAV       0.110150
    120 C119       -10.2720    -1.3440    -3.9550 C          0 DAV       0.110150
    121 N            3.4690    -1.7510    -4.0930 N           0 DAV      -0.544525
    122 N1           4.0900     3.8900    -0.7730 N           0 DAV      -0.544525
    123 N2           4.2960    -4.2340     0.7860 N           0 DAV      -0.544525
    124 N3           3.8010     2.0330     4.1490 N           0 DAV      -0.544525
    125 N4          -3.6940    -4.4460     1.3800 N           0 DAV      -0.544525
    126 N5          -3.0930     1.1950     4.3490 N           0 DAV      -0.544525
    127 N6          -4.5670    -3.2710    -3.8730 N           0 DAV      -0.544525
    128 N7          -4.6850     3.4540    -1.4110 N           0 DAV      -0.544525
    129 N8           8.7680     0.8450    -3.6960 N           0 DAV      -0.529650
    130 N9           7.9660    -0.3350     4.0560 N           0 DAV      -0.529650
    131 N10         -7.7040     1.1580     3.7750 N           0 DAV      -0.529650
    132 N11         -8.8050    -1.2360    -3.9470 N           0 DAV      -0.529650
    133 O           13.5140    -0.7690    -8.9040 O           0 DAV      -0.502750
    134 O1          15.5710    -0.1560    -8.5520 O          0 DAV      -0.586850
    135 O2          12.9180    -3.3730    -0.1610 O          0 DAV      -0.586850
    136 O3          12.1060    -5.2460    -0.9100 O           0 DAV      -0.502750
    137 O4          10.7190     7.1610    -5.8340 O          0 DAV      -0.586850
    138 O5           8.7600     7.5320    -6.7130 O           0 DAV      -0.502750
    139 O6          12.7390     2.2340     8.8920 O           0 DAV      -0.502750
    140 O7          14.8340     2.0610     8.3350 O          0 DAV      -0.586850
    141 O8          11.1640     4.8630     0.6000 O          0 DAV      -0.586850
    142 O9           9.3640     6.0900     0.6390 O           0 DAV      -0.502750
    143 O10         11.0980    -6.2820     5.1990 O           0 DAV      -0.502750
    144 O11         10.0620    -6.8530     7.0230 O          0 DAV      -0.586850
    145 O12        -10.1290     7.4450     6.5850 O           0 DAV      -0.502750
    146 O13        -12.2560     7.8120     6.3270 O          0 DAV      -0.586850
    147 O14        -12.2990    -1.5530     7.9500 O           0 DAV      -0.502750
    148 O15        -11.2060    -1.4880     9.8290 O          0 DAV      -0.586850
    149 O16         -9.8890     4.3630    -2.0670 O          0 DAV      -0.586850
    150 O17         -7.8620     4.6330    -2.8180 O           0 DAV      -0.502750
    151 O18        -13.7040    -4.9210    -7.9590 O           0 DAV      -0.502750
    152 O19        -15.7830    -4.5560    -7.4300 O          0 DAV      -0.586850
    153 O20        -11.5030     4.4230    -6.4960 O           0 DAV      -0.502750
    154 O21        -11.5180     3.9940    -8.6320 O          0 DAV      -0.586850
    155 O22        -11.0920    -4.6560     1.4830 O           0 DAV      -0.502750
    156 O23        -11.0590    -6.7140     0.7640 O          0 DAV      -0.586850
    157 O24          5.7050    -2.4080    -3.9420 O           0 DAV      -0.604600
    158 O25          2.1960     3.0080    -1.9180 O           0 DAV      -0.604600
    159 O26          2.2440    -4.0800     1.9790 O           0 DAV      -0.604600
    160 O27          1.8470     0.7200     4.4890 O           0 DAV      -0.604600
    161 O28         -5.8150    -4.4150     0.3250 O           0 DAV      -0.604600
    162 O29         -1.9870    -0.8890     4.4270 O           0 DAV      -0.604600
    163 O30         -2.6980    -1.9620    -4.4990 O           0 DAV      -0.604600
    164 O31         -2.7990     2.6280    -2.5130 O           0 DAV      -0.604600
    165 O32          8.5330     2.8470    -2.4450 O           0 DAV      -0.656850
    166 O33          8.1630    -2.2880     2.7460 O           0 DAV      -0.656850
    167 O34         -8.4060    -0.2040     1.9700 O           0 DAV      -0.656850
    168 O35         -9.0280     0.9630    -3.1030 O           0 DAV      -0.656850
    169 O36         12.0700     0.7140    -5.3410 O          0 DAV      -0.429683
    170 O37         10.7510    -1.0030    -2.7700 O          0 DAV      -0.429683
    171 O38          9.7640     3.2060    -4.9120 O          0 DAV      -0.429683
    172 O39         11.2980     0.5130     5.4290 O          0 DAV      -0.429683
    173 O40          9.4070     1.9290     3.0100 O          0 DAV      -0.429683
    174 O41          9.5780    -2.4450     5.0900 O          0 DAV      -0.429683
    175 O42        -10.1120     3.9000     4.4640 O          0 DAV      -0.429683
    176 O43         -9.6370     0.8120     5.8600 O          0 DAV      -0.429683
    177 O44         -8.5470     2.8980     1.5990 O          0 DAV      -0.429683
    178 O45        -12.1400    -2.4260    -5.0630 O          0 DAV      -0.429683
    179 O46        -10.4560     0.4950    -5.5310 O          0 DAV      -0.429683
    180 O47        -10.2280    -3.1340    -2.3120 O          0 DAV      -0.429683
    181 H           14.1870     1.4100    -6.8050 H          0 DAV       0.088367
    182 H1          14.5100    -0.1150    -6.0160 H          0 DAV       0.088367
    183 H2          10.2830    -3.4340    -1.7990 H          0 DAV       0.088367
    184 H3          11.5740    -3.5140    -2.9760 H          0 DAV       0.088367
    185 H4           9.6130     4.7500    -7.0660 H          0 DAV       0.088367
    186 H5           8.2400     5.0850    -6.0380 H          0 DAV       0.088367
    187 H6          13.6410     0.2660     6.6720 H          0 DAV       0.088367
    188 H7          13.5660     1.8350     5.9050 H          0 DAV       0.088367
    189 H8           8.3550     4.1950     2.0740 H          0 DAV       0.088367
    190 H9           9.7060     4.5660     3.1190 H          0 DAV       0.088367
    191 H10          9.9650    -4.1300     7.1220 H          0 DAV       0.088367
    192 H11          8.6000    -4.6790     6.1780 H          0 DAV       0.088367
    193 H12        -11.7170     6.0330     4.2920 H          0 DAV       0.088367
    194 H13        -12.0580     5.1580     5.7660 H          0 DAV       0.088367
    195 H14         -9.2790    -0.7630     7.9970 H          0 DAV       0.088367
    196 H15        -10.1800     0.6500     8.4900 H          0 DAV       0.088367
    197 H16         -8.0180     5.0200     0.0860 H          0 DAV       0.088367
    198 H17         -7.1230     3.6520    -0.5320 H          0 DAV       0.088367
    199 H18        -14.4590    -3.7510    -5.1890 H          0 DAV       0.088367
    200 H19        -14.5040    -2.4000    -6.2960 H          0 DAV       0.088367
    201 H20         -9.5440     2.3630    -7.2030 H          0 DAV       0.088367
    202 H21        -10.9260     1.5750    -7.9290 H          0 DAV       0.088367
    203 H22        -10.5550    -5.6720    -1.5480 H          0 DAV       0.088367
    204 H23         -9.1800    -5.0020    -0.7070 H          0 DAV       0.088367
    205 H24         11.9220     0.6320    -7.3830 H          0 DAV       0.053700
    206 H25         12.2440    -0.8950    -6.5990 H          0 DAV       0.053700
    207 H26         11.2910    -1.3970    -0.8290 H          0 DAV       0.053700
    208 H27         12.5870    -1.4840    -1.9960 H          0 DAV       0.053700
    209 H28         11.0930     4.7590    -5.0850 H          0 DAV       0.053700
    210 H29          9.7150     5.0750    -4.0590 H          0 DAV       0.053700
    211 H30         11.3290     0.5440     7.4780 H          0 DAV       0.053700
    212 H31         11.2500     2.1130     6.7120 H          0 DAV       0.053700
    213 H32          9.6590     2.3830     1.0250 H          0 DAV       0.053700
    214 H33         11.0180     2.7630     2.0550 H          0 DAV       0.053700
    215 H34         11.2200    -3.6770     5.0420 H          0 DAV       0.053700
    216 H35          9.8520    -4.2220     4.1000 H          0 DAV       0.053700
    217 H36         -9.2960     5.7690     4.7000 H          0 DAV       0.053700
    218 H37         -9.6390     4.9090     6.1820 H          0 DAV       0.053700
    219 H38        -10.6880    -0.9460     5.9750 H          0 DAV       0.053700
    220 H39        -11.5710     0.4820     6.4670 H          0 DAV       0.053700
    221 H40        -10.0160     3.5950     0.3550 H          0 DAV       0.053700
    222 H41         -9.1200     2.2220    -0.2480 H          0 DAV       0.053700
    223 H42        -12.1670    -4.2890    -5.9330 H          0 DAV       0.053700
    224 H43        -12.2150    -2.9450    -7.0470 H          0 DAV       0.053700
    225 H44        -10.7390     2.4670    -5.0430 H          0 DAV       0.053700
    226 H45        -12.1160     1.6760    -5.7710 H          0 DAV       0.053700
    227 H46        -11.8220    -3.6010    -1.1180 H          0 DAV       0.053700
    228 H47        -10.4440    -2.9240    -0.2830 H          0 DAV       0.053700
    229 H48          4.5220    -4.4030    -2.4130 H          0 DAV       0.155000
    230 H49          4.0980     4.6410     2.3610 H          0 DAV       0.155000
    231 H50         -4.5200    -5.4860    -1.7130 H          0 DAV       0.155000
    232 H51         -4.8660     3.0810     1.2390 H          0 DAV       0.155000
    233 H52          0.6580    -3.6610    -3.9080 H          0 DAV       0.143125
    234 H53          0.7160     4.5450    -0.1390 H          0 DAV       0.143125
    235 H54          1.1780    -5.3770    -0.0400 H          0 DAV       0.143125
    236 H55          0.5070     3.0010     3.8290 H          0 DAV       0.143125
    237 H56         -0.7600    -5.4240     0.1700 H          0 DAV       0.143125
    238 H57         -1.3850     2.6540     3.5780 H          0 DAV       0.143125
    239 H58         -1.1860    -4.1050    -3.8710 H          0 DAV       0.143125
    240 H59         -1.1830     4.6420    -0.1980 H          0 DAV       0.143125
    241 H60          3.0490     0.6360    -2.9480 H          0 DAV       0.169500
    242 H61          2.3890    -1.6570     3.2830 H          0 DAV       0.169500
    243 H62         -3.1720    -2.4780     2.7580 H          0 DAV       0.169500
    244 H63         -3.2110     0.4520    -3.5180 H          0 DAV       0.169500
    245 H64          7.1060    -0.6660    -3.3810 H          0 DAV       0.161625
    246 H65          6.2740     2.9880    -1.4520 H          0 DAV       0.161625
    247 H66          6.1440    -2.9050     1.6370 H          0 DAV       0.161625
    248 H67          5.8810     0.7770     3.7600 H          0 DAV       0.161625
    249 H68         -7.0100    -2.1410     0.9650 H          0 DAV       0.161625
    250 H69         -5.5170     1.0400     3.4160 H          0 DAV       0.161625
    251 H70         -6.7090    -1.9890    -3.5940 H          0 DAV       0.161625
    252 H71         -6.9350     2.0170    -2.0980 H          0 DAV       0.161625
    253 H72          4.1190    -3.6110    -4.7910 H          0 DAV       0.075262
    254 H73          2.4910    -3.2010    -5.2630 H          0 DAV       0.075262
    255 H74          2.6750     5.4510    -0.9610 H          0 DAV       0.075262
    256 H75          4.0330     5.7890     0.0850 H          0 DAV       0.075262
    257 H76          3.2720    -6.0650     0.6570 H          0 DAV       0.075262
    258 H77          4.6900    -5.9270    -0.3510 H          0 DAV       0.075262
    259 H78          3.7920     4.0060     4.8100 H          0 DAV       0.075262
    260 H79          2.3580     3.1140     5.2410 H          0 DAV       0.075262
    261 H80         -4.2860    -6.2800     0.5420 H          0 DAV       0.075262
    262 H81         -2.7250    -6.3030     1.3200 H          0 DAV       0.075262
    263 H82         -4.3310     2.8800     4.3610 H          0 DAV       0.075262
    264 H83         -4.8420     1.6130     3.2780 H          0 DAV       0.075262
    265 H84         -3.2080    -4.4160    -5.0020 H          0 DAV       0.075262
    266 H85         -4.5270    -5.2990    -4.2800 H          0 DAV       0.075262
    267 H86         -4.2170     5.3840    -0.7380 H          0 DAV       0.075262
    268 H87         -2.9740     4.5780    -1.6630 H          0 DAV       0.075262
    269 H88         10.4820    -0.5660    -5.1710 H          0 DAV       0.059283
    270 H89         10.1370     0.9490    -5.9720 H          0 DAV       0.059283
    271 H90         12.0270     0.6030    -2.8100 H          0 DAV       0.059283
    272 H91         10.6550     0.7840    -1.7470 H          0 DAV       0.059283
    273 H92         10.1390     3.0230    -2.8990 H          0 DAV       0.059283
    274 H93         11.5200     2.7810    -3.9410 H          0 DAV       0.059283
    275 H94          9.4520     1.4020     5.4490 H          0 DAV       0.059283
    276 H95          9.5320    -0.1650     6.2180 H          0 DAV       0.059283
    277 H96         11.0010     0.6460     2.9150 H          0 DAV       0.059283
    278 H97          9.6120     0.1680     1.9690 H          0 DAV       0.059283
    279 H98          9.7120    -2.1240     3.0660 H          0 DAV       0.059283
    280 H99         11.0950    -1.6000     3.9960 H          0 DAV       0.059283
    281 H100        -8.5000     3.0920     5.4380 H          0 DAV       0.059283
    282 H101        -8.1380     3.8340     3.8980 H          0 DAV       0.059283
    283 H102       -10.9840     1.5490     4.5010 H          0 DAV       0.059283
    284 H103       -10.1600     0.0850     4.0160 H          0 DAV       0.059283
    285 H104        -9.5710     1.1310     1.8080 H          0 DAV       0.059283
    286 H105       -10.4320     2.5640     2.3120 H          0 DAV       0.059283
    287 H106       -10.3650    -1.9930    -6.0010 H          0 DAV       0.059283
    288 H107       -10.2920    -3.3010    -4.8470 H          0 DAV       0.059283
    289 H108       -11.9560    -0.0460    -4.2420 H          0 DAV       0.059283
    290 H109       -10.5810     0.7350    -3.4990 H          0 DAV       0.059283
    291 H110       -10.4580    -1.1570    -1.8230 H          0 DAV       0.059283
    292 H111       -11.8360    -1.8980    -2.6010 H          0 DAV       0.059283
    293 H112        -3.0250    -4.0460     2.0060 H          0 DAV       0.316000
    294 H113        -2.4870     1.5250     5.0680 H          0 DAV       0.316000
    295 H114         5.0450     3.7870    -0.4990 H          0 DAV       0.316000
    296 H115         2.7420    -1.0660    -4.1060 H          0 DAV       0.316000
    297 H116         5.2090    -3.8710     0.5950 H          0 DAV       0.316000
    298 H117         4.7790     2.0820     3.9380 H          0 DAV       0.316000
    299 H118        -5.6560     3.4800    -1.1760 H          0 DAV       0.316000
    300 H119        -8.2460    -2.0140    -4.2320 H          0 DAV       0.320500
    301 H120        -7.0220     1.4150     4.4580 H          0 DAV       0.320500
    302 H121         8.3710     0.0160    -4.0840 H          0 DAV       0.320500
    303 H122         7.4170     0.3620     4.5160 H          0 DAV       0.320500
    304 H123        -5.5140    -3.3300    -3.5560 H          0 DAV       0.316000
    305 H124         9.4610    -6.4440     7.7100 H          0 DAV       0.439917
    306 H125        15.3900     1.6890     7.5920 H          0 DAV       0.439917
    307 H126        11.5340     4.0510     1.0510 H          0 DAV       0.439917
    308 H127        12.8070    -2.3900    -0.3060 H          0 DAV       0.439917
    309 H128        16.1040     0.3440    -7.8690 H          0 DAV       0.439917
    310 H129        11.2620     6.3910    -5.4980 H          0 DAV       0.439917
    311 H130       -13.0550     7.3690     5.9210 H          0 DAV       0.439917
    312 H131       -10.3910    -1.0550    10.2140 H          0 DAV       0.439917
    313 H132       -10.3550     4.1510    -1.2080 H          0 DAV       0.439917
    314 H133       -10.7980    -7.2230    -0.0570 H          0 DAV       0.439917
    315 H134       -16.3110    -4.0520    -6.7460 H          0 DAV       0.439917
    316 H135       -11.2520     3.2600    -9.2560 H          0 DAV       0.439917
@<TRIPOS>BOND
     1     1    13 1   
     2     1    93 1   
     3     1   181 1   
     4     1   182 1   
     5     2    14 1   
     6     2    94 1   
     7     2   183 1   
     8     2   184 1   
     9     3    15 1   
    10     3    95 1   
    11     3   185 1   
    12     3   186 1   
    13     4    16 1   
    14     4    96 1   
    15     4   187 1   
    16     4   188 1   
    17     5    17 1   
    18     5    97 1   
    19     5   189 1   
    20     5   190 1   
    21     6    18 1   
    22     6    98 1   
    23     6   191 1   
    24     6   192 1   
    25     7    19 1   
    26     7    99 1   
    27     7   193 1   
    28     7   194 1   
    29     8    20 1   
    30     8   100 1   
    31     8   195 1   
    32     8   196 1   
    33     9    21 1   
    34     9   101 1   
    35     9   197 1   
    36     9   198 1   
    37    10    22 1   
    38    10   102 1   
    39    10   199 1   
    40    10   200 1   
    41    11    23 1   
    42    11   103 1   
    43    11   201 1   
    44    11   202 1   
    45    12    24 1   
    46    12   104 1   
    47    12   203 1   
    48    12   204 1   
    49    13   169 1   
    50    13   205 1   
    51    13   206 1   
    52    14   170 1   
    53    14   207 1   
    54    14   208 1   
    55    15   171 1   
    56    15   209 1   
    57    15   210 1   
    58    16   172 1   
    59    16   211 1   
    60    16   212 1   
    61    17   173 1   
    62    17   213 1   
    63    17   214 1   
    64    18   174 1   
    65    18   215 1   
    66    18   216 1   
    67    19   175 1   
    68    19   217 1   
    69    19   218 1   
    70    20   176 1   
    71    20   219 1   
    72    20   220 1   
    73    21   177 1   
    74    21   221 1   
    75    21   222 1   
    76    22   178 1   
    77    22   223 1   
    78    22   224 1   
    79    23   179 1   
    80    23   225 1   
    81    23   226 1   
    82    24   180 1   
    83    24   227 1   
    84    24   228 1   
    85    25    69 ar  
    86    25    71 ar  
    87    25   229 1   
    88    26    70 ar  
    89    26    72 ar  
    90    26   230 1   
    91    27    73 ar  
    92    27    75 ar  
    93    27   231 1   
    94    28    74 ar  
    95    28    76 ar  
    96    28   232 1   
    97    29    69 ar  
    98    29    77 ar  
    99    29   233 1   
   100    30    70 ar  
   101    30    78 ar  
   102    30   234 1   
   103    31    71 ar  
   104    31    77 ar  
   105    31   235 1   
   106    32    72 ar  
   107    32    78 ar  
   108    32   236 1   
   109    33    73 ar  
   110    33    79 ar  
   111    33   237 1   
   112    34    74 ar  
   113    34    80 ar  
   114    34   238 1   
   115    35    75 ar  
   116    35    79 ar  
   117    35   239 1   
   118    36    76 ar  
   119    36    80 ar  
   120    36   240 1   
   121    37    81 ar  
   122    37    82 ar  
   123    37   241 1   
   124    38    83 ar  
   125    38    84 ar  
   126    38   242 1   
   127    39    85 ar  
   128    39    86 ar  
   129    39   243 1   
   130    40    87 ar  
   131    40    88 ar  
   132    40   244 1   
   133    41    81 ar  
   134    41    89 ar  
   135    41   245 1   
   136    42    82 ar  
   137    42    89 ar  
   138    42   246 1   
   139    43    83 ar  
   140    43    90 ar  
   141    43   247 1   
   142    44    84 ar  
   143    44    90 ar  
   144    44   248 1   
   145    45    85 ar  
   146    45    91 ar  
   147    45   249 1   
   148    46    86 ar  
   149    46    91 ar  
   150    46   250 1   
   151    47    87 ar  
   152    47    92 ar  
   153    47   251 1   
   154    48    88 ar  
   155    48    92 ar  
   156    48   252 1   
   157    49    69 1   
   158    49   121 1   
   159    49   253 1   
   160    49   254 1   
   161    50    70 1   
   162    50   122 1   
   163    50   255 1   
   164    50   256 1   
   165    51    71 1   
   166    51   123 1   
   167    51   257 1   
   168    51   258 1   
   169    52    72 1   
   170    52   124 1   
   171    52   259 1   
   172    52   260 1   
   173    53    73 1   
   174    53   125 1   
   175    53   261 1   
   176    53   262 1   
   177    54    74 1   
   178    54   126 1   
   179    54   263 1   
   180    54   264 1   
   181    55    75 1   
   182    55   127 1   
   183    55   265 1   
   184    55   266 1   
   185    56    76 1   
   186    56   128 1   
   187    56   267 1   
   188    56   268 1   
   189    57   117 1   
   190    57   169 1   
   191    57   269 1   
   192    57   270 1   
   193    58   117 1   
   194    58   170 1   
   195    58   271 1   
   196    58   272 1   
   197    59   117 1   
   198    59   171 1   
   199    59   273 1   
   200    59   274 1   
   201    60   118 1   
   202    60   172 1   
   203    60   275 1   
   204    60   276 1   
   205    61   118 1   
   206    61   173 1   
   207    61   277 1   
   208    61   278 1   
   209    62   118 1   
   210    62   174 1   
   211    62   279 1   
   212    62   280 1   
   213    63   119 1   
   214    63   175 1   
   215    63   281 1   
   216    63   282 1   
   217    64   119 1   
   218    64   176 1   
   219    64   283 1   
   220    64   284 1   
   221    65   119 1   
   222    65   177 1   
   223    65   285 1   
   224    65   286 1   
   225    66   120 1   
   226    66   178 1   
   227    66   287 1   
   228    66   288 1   
   229    67   120 1   
   230    67   179 1   
   231    67   289 1   
   232    67   290 1   
   233    68   120 1   
   234    68   180 1   
   235    68   291 1   
   236    68   292 1   
   237    77    79 1   
   238    78    80 1   
   239    81   105 1   
   240    82   106 1   
   241    83   107 1   
   242    84   108 1   
   243    85   109 1   
   244    86   110 1   
   245    87   111 1   
   246    88   112 1   
   247    89   113 1   
   248    90   114 1   
   249    91   115 1   
   250    92   116 1   
   251    93   133 2   
   252    93   134 1   
   253    94   135 1   
   254    94   136 2   
   255    95   137 1   
   256    95   138 2   
   257    96   139 2   
   258    96   140 1   
   259    97   141 1   
   260    97   142 2   
   261    98   143 2   
   262    98   144 1   
   263    99   145 2   
   264    99   146 1   
   265   100   147 2   
   266   100   148 1   
   267   101   149 1   
   268   101   150 2   
   269   102   151 2   
   270   102   152 1   
   271   103   153 2   
   272   103   154 1   
   273   104   155 2   
   274   104   156 1   
   275   105   121 1   
   276   105   157 2   
   277   106   122 1   
   278   106   158 2   
   279   107   123 1   
   280   107   159 2   
   281   108   124 1   
   282   108   160 2   
   283   109   125 1   
   284   109   161 2   
   285   110   126 1   
   286   110   162 2   
   287   111   127 1   
   288   111   163 2   
   289   112   128 1   
   290   112   164 2   
   291   113   129 1   
   292   113   165 2   
   293   114   130 1   
   294   114   166 2   
   295   115   131 1   
   296   115   167 2   
   297   116   132 1   
   298   116   168 2   
   299   117   129 1   
   300   118   130 1   
   301   119   131 1   
   302   120   132 1   
   303   121   296 1   
   304   122   295 1   
   305   123   297 1   
   306   124   298 1   
   307   125   293 1   
   308   126   294 1   
   309   127   304 1   
   310   128   299 1   
   311   129   302 1   
   312   130   303 1   
   313   131   301 1   
   314   132   300 1   
   315   134   309 1   
   316   135   308 1   
   317   137   310 1   
   318   140   306 1   
   319   141   307 1   
   320   144   305 1   
   321   146   311 1   
   322   148   312 1   
   323   149   313 1   
   324   152   315 1   
   325   154   316 1   
   326   156   314 1   
@<TRIPOS>SUBSTRUCTURE
     1 DAV         1 TEMP              0 ****  ****    0 ROOT
