@<TRIPOS>MOLECULE
32
  104   114     1     0     0
SMALL
bcc


@<TRIPOS>ATOM
      1 C1          -5.2470     1.6270     2.7900 C          1 32       -0.087433
      2 C2          -6.2990     0.6510     2.2180 C          1 32       -0.008700
      3 C3          -6.5080    -0.4640     3.2680 C          1 32       -0.087433
      4 C4          -7.6470     1.3890     2.0650 C          1 32       -0.087433
      5 C5          -5.8290     0.1360     0.8460 C          1 32       -0.073300
      6 C6          -5.5570    -1.2200     0.5970 C          1 32       -0.095000
      7 C7          -5.1120    -1.6690    -0.6590 C          1 32       -0.124800
      8 C8          -4.9400    -0.7410    -1.6930 C          1 32       -0.101000
      9 C9          -5.1780     0.6200    -1.4770 C          1 32       -0.124800
     10 C10         -5.6220     1.0410    -0.2140 C          1 32       -0.095000
     11 C11         -4.8620     1.6380    -2.5570 C          1 32        0.130300
     12 N1          -3.4260     1.9030    -2.6010 N           1 32       -0.489400
     13 C12         -2.6630     1.1750    -3.5090 C           1 32        0.717600
     14 O1          -3.1310     0.4360    -4.3700 O           1 32       -0.594250
     15 C13         -1.1930     1.3080    -3.4070 C          1 32       -0.113600
     16 C14         -0.3740     0.5370    -4.2420 C          1 32       -0.063000
     17 C15          1.0110     0.6180    -4.1250 C          1 32       -0.063000
     18 C16          1.5840     1.4710    -3.1730 C          1 32       -0.113600
     19 C17          3.0560     1.5110    -3.0270 C           1 32        0.717600
     20 O2           3.7450     0.8420    -3.7920 O           1 32       -0.594250
     21 N2           3.5660     2.3120    -2.0090 N           1 32       -0.489400
     22 C18          4.9950     2.2150    -1.7230 C          1 32        0.130300
     23 C19          5.2430     1.2270    -0.5980 C          1 32       -0.124800
     24 C20          5.2040    -0.1510    -0.8450 C          1 32       -0.101000
     25 C21          5.3100    -1.0670     0.2070 C          1 32       -0.124800
     26 C22          5.4870    -0.5840     1.5130 C          1 32       -0.095000
     27 C23          5.5540     0.7940     1.7990 C          1 32       -0.073300
     28 C24          5.7290     1.2710     3.2520 C          1 32       -0.008700
     29 C25          7.0320     0.6860     3.8400 C          1 32       -0.087433
     30 C26          4.5300     0.7940     4.1000 C          1 32       -0.087433
     31 C27          5.8140     2.8070     3.4010 C          1 32       -0.087433
     32 C28          5.4200     1.6830     0.7200 C          1 32       -0.095000
     33 C29          5.1320    -2.5520    -0.0450 C          1 32        0.130300
     34 N3           3.7150    -2.8790    -0.1780 N           1 32       -0.489400
     35 C30          2.9920    -3.1010     0.9920 C           1 32        0.717600
     36 O3           3.4950    -3.1890     2.1090 O           1 32       -0.594250
     37 C31          1.5220    -3.2320     0.8540 C          1 32       -0.113600
     38 C32          0.7320    -3.3710     2.0010 C          1 32       -0.063000
     39 C33         -0.6550    -3.4510     1.8860 C          1 32       -0.063000
     40 C34         -1.2580    -3.3930     0.6240 C          1 32       -0.113600
     41 C35         -2.7370    -3.4320     0.5180 C           1 32        0.717600
     42 O4          -3.4000    -3.5880     1.5390 O           1 32       -0.594250
     43 N4          -3.2790    -3.2830    -0.7560 N           1 32       -0.489400
     44 C36         -4.7260    -3.1230    -0.8600 C          1 32        0.130300
     45 C37         -2.5400    -3.2540    -1.9350 C           1 32        0.717600
     46 O5          -3.0310    -3.2490    -3.0590 O           1 32       -0.594250
     47 C38         -1.0660    -3.2180    -1.8010 C          1 32       -0.113600
     48 C39         -0.2750    -3.1040    -2.9500 C          1 32       -0.063000
     49 C40          1.1110    -3.0240    -2.8360 C          1 32       -0.063000
     50 C41          1.7110    -3.0570    -1.5710 C          1 32       -0.113600
     51 C42          3.1810    -2.9220    -1.4620 C           1 32        0.717600
     52 O6           3.8460    -2.8460    -2.4910 O           1 32       -0.594250
     53 C43          0.9340    -3.1870    -0.4150 C          1 32       -0.009000
     54 C44         -0.4790    -3.2690    -0.5320 C          1 32       -0.009000
     55 C45          2.8100     3.1830    -1.2290 C           1 32        0.717600
     56 O7           3.2840     3.9800    -0.4240 O           1 32       -0.594250
     57 C46          1.3380     3.1220    -1.3950 C          1 32       -0.113600
     58 C47          0.5190     3.9110    -0.5780 C          1 32       -0.063000
     59 C48         -0.8670     3.8290    -0.6950 C          1 32       -0.063000
     60 C49         -1.4420     2.9590    -1.6300 C          1 32       -0.113600
     61 C50         -2.9170     2.8480    -1.7130 C           1 32        0.717600
     62 O8          -3.6090     3.5770    -1.0070 O           1 32       -0.594250
     63 C51         -0.6340     2.1760    -2.4630 C          1 32       -0.009000
     64 C52          0.7780     2.2590    -2.3430 C          1 32       -0.009000
     65 H1          -5.1140     2.5110     2.1570 H          1 32        0.038256
     66 H2          -5.5400     1.9850     3.7840 H          1 32        0.038256
     67 H3          -4.2690     1.1410     2.8850 H          1 32        0.038256
     68 H4          -7.2600    -1.1910     2.9390 H          1 32        0.038256
     69 H5          -6.8560    -0.0480     4.2210 H          1 32        0.038256
     70 H6          -5.5770    -1.0040     3.4750 H          1 32        0.038256
     71 H7          -8.0210     1.7340     3.0360 H          1 32        0.038256
     72 H8          -7.5660     2.2730     1.4220 H          1 32        0.038256
     73 H9          -8.4080     0.7320     1.6270 H          1 32        0.038256
     74 H10         -5.6620    -1.9590     1.3890 H          1 32        0.146000
     75 H11         -4.5840    -1.0790    -2.6670 H          1 32        0.157000
     76 H12         -5.7830     2.1070    -0.0510 H          1 32        0.146000
     77 H13         -5.4050     2.5710    -2.3660 H          1 32        0.086200
     78 H14         -5.2200     1.2640    -3.5230 H          1 32        0.086200
     79 H15         -0.8130    -0.1360    -4.9780 H          1 32        0.174000
     80 H16          1.6420     0.0080    -4.7710 H          1 32        0.174000
     81 H17          5.5510     1.8970    -2.6130 H          1 32        0.086200
     82 H18          5.3870     3.2030    -1.4510 H          1 32        0.086200
     83 H19          5.0560    -0.5120    -1.8630 H          1 32        0.157000
     84 H20          5.5460    -1.3070     2.3270 H          1 32        0.146000
     85 H21          7.0140    -0.4090     3.8820 H          1 32        0.038256
     86 H22          7.9020     0.9780     3.2380 H          1 32        0.038256
     87 H23          7.1990     1.0420     4.8630 H          1 32        0.038256
     88 H24          3.5840     1.1700     3.6920 H          1 32        0.038256
     89 H25          4.4590    -0.2980     4.1400 H          1 32        0.038256
     90 H26          4.6110     1.1490     5.1340 H          1 32        0.038256
     91 H27          4.8980     3.2980     3.0530 H          1 32        0.038256
     92 H28          5.9530     3.0950     4.4500 H          1 32        0.038256
     93 H29          6.6590     3.2200     2.8380 H          1 32        0.038256
     94 H30          5.4250     2.7580     0.8860 H          1 32        0.146000
     95 H31          5.6860    -2.8350    -0.9480 H          1 32        0.086200
     96 H32          5.5710    -3.1290     0.7790 H          1 32        0.086200
     97 H33          1.1910    -3.4040     2.9880 H          1 32        0.174000
     98 H34         -1.2630    -3.5460     2.7860 H          1 32        0.174000
     99 H35         -5.2240    -3.7520    -0.1120 H          1 32        0.086200
    100 H36         -5.0880    -3.4610    -1.8380 H          1 32        0.086200
    101 H37         -0.7360    -3.0680    -3.9370 H          1 32        0.174000
    102 H38          1.7190    -2.9250    -3.7340 H          1 32        0.174000
    103 H39          0.9560     4.5810     0.1610 H          1 32        0.174000
    104 H40         -1.4970     4.4370    -0.0470 H          1 32        0.174000
@<TRIPOS>BOND
     1     1     2 1   
     2     1    65 1   
     3     1    66 1   
     4     1    67 1   
     5     2     3 1   
     6     2     4 1   
     7     2     5 1   
     8     3    68 1   
     9     3    69 1   
    10     3    70 1   
    11     4    71 1   
    12     4    72 1   
    13     4    73 1   
    14     5     6 ar  
    15     5    10 ar  
    16     6     7 ar  
    17     6    74 1   
    18     7     8 ar  
    19     7    44 1   
    20     8     9 ar  
    21     8    75 1   
    22     9    10 ar  
    23     9    11 1   
    24    10    76 1   
    25    11    12 1   
    26    11    77 1   
    27    11    78 1   
    28    12    13 1   
    29    12    61 1   
    30    13    14 2   
    31    13    15 1   
    32    15    16 ar  
    33    15    63 ar  
    34    16    17 ar  
    35    16    79 1   
    36    17    18 ar  
    37    17    80 1   
    38    18    19 1   
    39    18    64 ar  
    40    19    20 2   
    41    19    21 1   
    42    21    22 1   
    43    21    55 1   
    44    22    23 1   
    45    22    81 1   
    46    22    82 1   
    47    23    24 ar  
    48    23    32 ar  
    49    24    25 ar  
    50    24    83 1   
    51    25    26 ar  
    52    25    33 1   
    53    26    27 ar  
    54    26    84 1   
    55    27    28 1   
    56    27    32 ar  
    57    28    29 1   
    58    28    30 1   
    59    28    31 1   
    60    29    85 1   
    61    29    86 1   
    62    29    87 1   
    63    30    88 1   
    64    30    89 1   
    65    30    90 1   
    66    31    91 1   
    67    31    92 1   
    68    31    93 1   
    69    32    94 1   
    70    33    34 1   
    71    33    95 1   
    72    33    96 1   
    73    34    35 1   
    74    34    51 1   
    75    35    36 2   
    76    35    37 1   
    77    37    38 ar  
    78    37    53 ar  
    79    38    39 ar  
    80    38    97 1   
    81    39    40 ar  
    82    39    98 1   
    83    40    41 1   
    84    40    54 ar  
    85    41    42 2   
    86    41    43 1   
    87    43    44 1   
    88    43    45 1   
    89    44    99 1   
    90    44   100 1   
    91    45    46 2   
    92    45    47 1   
    93    47    48 ar  
    94    47    54 ar  
    95    48    49 ar  
    96    48   101 1   
    97    49    50 ar  
    98    49   102 1   
    99    50    51 1   
   100    50    53 ar  
   101    51    52 2   
   102    53    54 ar  
   103    55    56 2   
   104    55    57 1   
   105    57    58 ar  
   106    57    64 ar  
   107    58    59 ar  
   108    58   103 1   
   109    59    60 ar  
   110    59   104 1   
   111    60    61 1   
   112    60    63 ar  
   113    61    62 2   
   114    63    64 ar  
@<TRIPOS>SUBSTRUCTURE
     1 32          1 TEMP              0 ****  ****    0 ROOT
