@<TRIPOS>MOLECULE
ASB
  122   130     1     0     0
SMALL
bcc


@<TRIPOS>ATOM
      1 C1           3.5800     5.9090     2.2450 C          1 ASB      -0.068800
      2 C2           2.2040     5.8140     1.6380 C          1 ASB      -0.029300
      3 C3           1.1190     6.1670     2.4520 C          1 ASB      -0.129000
      4 C4          -0.1890     6.2500     1.9560 C          1 ASB      -0.029300
      5 C5          -1.2490     6.7700     2.8940 C          1 ASB      -0.068800
      6 C6          -0.4530     5.8840     0.6140 C          1 ASB      -0.147300
      7 C7          -1.8310     6.1600     0.0210 C          1 ASB       0.129300
      8 N1          -2.9090     5.3990     0.6390 N           1 ASB      -0.508900
      9 C8          -3.3240     4.1850     0.1550 C           1 ASB       0.653700
     10 O1          -2.7860     3.5680    -0.7580 O           1 ASB      -0.571600
     11 C9          -4.5000     3.5280     0.7940 C          1 ASB       0.009600
     12 C10         -5.5750     4.2600     1.2820 C          1 ASB      -0.137500
     13 C11         -6.6530     3.5820     1.8290 C          1 ASB       0.027000
     14 C12         -6.7080     2.1890     1.7580 C          1 ASB      -0.024500
     15 C13         -7.7680     1.4960     2.3500 C          1 ASB      -0.065000
     16 C14         -7.8100     0.1020     2.3180 C          1 ASB      -0.065000
     17 C15         -6.8730    -0.6210     1.5760 C          1 ASB      -0.024500
     18 C16         -6.9150    -2.0160     1.5470 C          1 ASB       0.027000
     19 C17         -5.9860    -2.7210     0.7940 C          1 ASB      -0.137500
     20 C18         -5.1320    -2.0180    -0.0490 C          1 ASB       0.009600
     21 C19         -4.0680    -2.6920    -0.8560 C           1 ASB       0.653700
     22 O2          -3.0880    -2.0150    -1.1520 O           1 ASB      -0.571600
     23 N2          -4.2540    -4.0020    -1.2240 N           1 ASB      -0.508900
     24 C20         -3.3500    -4.6950    -2.1340 C          1 ASB       0.129300
     25 C21         -2.0550    -5.2050    -1.5100 C          1 ASB      -0.147300
     26 C22         -2.1060    -6.0790    -0.3990 C          1 ASB      -0.029300
     27 C23         -3.3860    -6.4350     0.3130 C          1 ASB      -0.068800
     28 C24         -0.9280    -6.6830     0.0600 C          1 ASB      -0.129000
     29 C25          0.2940    -6.5360    -0.6080 C          1 ASB      -0.029300
     30 C26          1.4610    -7.3430    -0.0950 C          1 ASB      -0.068800
     31 C27          0.3780    -5.6820    -1.7340 C          1 ASB      -0.147300
     32 C28          1.6510    -5.6740    -2.5740 C          1 ASB       0.129300
     33 N3           2.8260    -5.1750    -1.8710 N           1 ASB      -0.508900
     34 C29          3.2030    -3.8570    -1.9120 C           1 ASB       0.653700
     35 O3           2.5610    -2.9550    -2.4400 O           1 ASB      -0.571600
     36 C30          4.4740    -3.4580    -1.2430 C          1 ASB       0.009600
     37 C31          5.5860    -4.2900    -1.2230 C          1 ASB      -0.137500
     38 C32          6.7480    -3.8410    -0.6160 C          1 ASB       0.027000
     39 C33          6.8320    -2.5240    -0.1620 C          1 ASB      -0.024500
     40 C34          7.9820    -2.0770     0.4940 C          1 ASB      -0.065000
     41 C35          8.0580    -0.7750     0.9870 C          1 ASB      -0.065000
     42 C36          7.0470     0.1490     0.7120 C          1 ASB      -0.024500
     43 C37          7.1220     1.4520     1.2080 C          1 ASB       0.027000
     44 C38          6.1180     2.3620     0.9160 C          1 ASB      -0.137500
     45 C39          5.1350     2.0100    -0.0020 C          1 ASB       0.009600
     46 C40          3.9880     2.9090    -0.3370 C           1 ASB       0.653700
     47 O4           2.9580     2.3670    -0.7270 O           1 ASB      -0.571600
     48 N4           4.1570     4.2650    -0.2040 N           1 ASB      -0.508900
     49 C41          3.1540     5.2260    -0.6480 C          1 ASB       0.129300
     50 C42          1.9730     5.4260     0.2980 C          1 ASB      -0.147300
     51 C43          0.6260     5.4000    -0.1940 C          1 ASB      -0.010300
     52 C44          0.3650     4.9430    -1.6140 C          1 ASB      -0.087800
     53 N5           5.1470     0.7680    -0.5840 N          1 ASB       0.041900
     54 C45          4.6370     0.6700    -1.9950 C          1 ASB      -0.043900
     55 C46          5.9360    -0.2410    -0.0810 C          1 ASB       0.001700
     56 C47          5.7380    -1.6350    -0.3500 C          1 ASB       0.001700
     57 N6           4.5330    -2.1970    -0.7090 N          1 ASB       0.041900
     58 C48          3.2510    -1.6260    -0.1840 C          1 ASB      -0.043900
     59 C49         -0.7890    -4.9580    -2.1390 C          1 ASB      -0.010300
     60 C50         -0.7170    -3.9900    -3.3010 C          1 ASB      -0.087800
     61 N7          -5.1900    -0.6500    -0.1100 N          1 ASB       0.041900
     62 C51         -4.8790    -0.0110    -1.4340 C          1 ASB      -0.043900
     63 C52         -5.8730     0.0720     0.8420 C          1 ASB       0.001700
     64 C53         -5.6770     1.4680     1.0970 C          1 ASB       0.001700
     65 N8          -4.5180     2.1580     0.8130 N          1 ASB       0.041900
     66 C54         -3.1920     1.4660     0.8990 C          1 ASB      -0.043900
     67 H1           4.2570     6.4740     1.5970 H          1 ASB       0.055867
     68 H2           3.5620     6.4350     3.2060 H          1 ASB       0.055867
     69 H3           3.9830     4.9090     2.4270 H          1 ASB       0.055867
     70 H4           1.3100     6.4650     3.4850 H          1 ASB       0.162000
     71 H5          -1.8280     7.5740     2.4290 H          1 ASB       0.055867
     72 H6          -0.8110     7.1900     3.8060 H          1 ASB       0.055867
     73 H7          -1.9160     5.9560     3.1960 H          1 ASB       0.055867
     74 H8          -2.0640     7.2230     0.1620 H          1 ASB       0.096450
     75 H9          -1.8740     6.0050    -1.0590 H          1 ASB       0.096450
     76 H10         -3.3700     5.8610     1.4130 H          1 ASB       0.336000
     77 H11         -5.5830     5.3480     1.2620 H          1 ASB       0.219000
     78 H12         -7.4660     4.1550     2.2830 H          1 ASB       0.218500
     79 H13         -8.5560     2.0270     2.8910 H          1 ASB       0.209500
     80 H14         -8.6160    -0.4050     2.8550 H          1 ASB       0.209500
     81 H15         -7.6420    -2.5680     2.1480 H          1 ASB       0.218500
     82 H16         -5.9640    -3.8050     0.8630 H          1 ASB       0.219000
     83 H17         -5.1200    -4.4940    -1.0440 H          1 ASB       0.336000
     84 H18         -3.8960    -5.5580    -2.5340 H          1 ASB       0.096450
     85 H19         -3.1890    -4.0280    -2.9830 H          1 ASB       0.096450
     86 H20         -3.7320    -5.5890     0.9150 H          1 ASB       0.055867
     87 H21         -4.1620    -6.7300    -0.3990 H          1 ASB       0.055867
     88 H22         -3.2480    -7.2850     0.9910 H          1 ASB       0.055867
     89 H23         -0.9820    -7.3550     0.9190 H          1 ASB       0.162000
     90 H24          2.1850    -6.6870     0.3970 H          1 ASB       0.055867
     91 H25          1.9460    -7.8940    -0.9060 H          1 ASB       0.055867
     92 H26          1.1420    -8.0900     0.6410 H          1 ASB       0.055867
     93 H27          1.5480    -5.1200    -3.5090 H          1 ASB       0.096450
     94 H28          1.8730    -6.7040    -2.8800 H          1 ASB       0.096450
     95 H29          3.3770    -5.8820    -1.4010 H          1 ASB       0.336000
     96 H30          5.5620    -5.2890    -1.6550 H          1 ASB       0.219000
     97 H31          7.6010    -4.5200    -0.5320 H          1 ASB       0.218500
     98 H32          8.8230    -2.7520     0.6790 H          1 ASB       0.209500
     99 H33          8.9450    -0.4860     1.5580 H          1 ASB       0.209500
    100 H34          7.9420     1.7550     1.8650 H          1 ASB       0.218500
    101 H35          6.1350     3.3400     1.3930 H          1 ASB       0.219000
    102 H36          5.0530     4.6770     0.0260 H          1 ASB       0.336000
    103 H37          3.6620     6.1910    -0.7630 H          1 ASB       0.096450
    104 H38          2.8570     4.9250    -1.6540 H          1 ASB       0.096450
    105 H39          0.5300     5.7670    -2.3140 H          1 ASB       0.060367
    106 H40          1.0040     4.0960    -1.8810 H          1 ASB       0.060367
    107 H41         -0.6440     4.5530    -1.7500 H          1 ASB       0.060367
    108 H42          4.8790     1.6000    -2.5180 H          1 ASB       0.110867
    109 H43          3.5650     0.4900    -1.9890 H          1 ASB       0.110867
    110 H44          5.1530    -0.1440    -2.5090 H          1 ASB       0.110867
    111 H45          2.6490    -2.4390     0.2360 H          1 ASB       0.110867
    112 H46          3.4680    -0.9320     0.6310 H          1 ASB       0.110867
    113 H47          2.7190    -1.1170    -0.9840 H          1 ASB       0.110867
    114 H48         -1.0000    -4.4920    -4.2310 H          1 ASB       0.060367
    115 H49         -1.3640    -3.1230    -3.1360 H          1 ASB       0.060367
    116 H50          0.2740    -3.5490    -3.4180 H          1 ASB       0.060367
    117 H51         -5.4400     0.9230    -1.5250 H          1 ASB       0.110867
    118 H52         -3.8120     0.1820    -1.5100 H          1 ASB       0.110867
    119 H53         -5.2180    -0.6800    -2.2320 H          1 ASB       0.110867
    120 H54         -3.3120     0.5090     1.4120 H          1 ASB       0.110867
    121 H55         -2.5150     2.0750     1.5060 H          1 ASB       0.110867
    122 H56         -2.7910     1.3120    -0.1010 H          1 ASB       0.110867
@<TRIPOS>BOND
     1     1     2 1   
     2     1    67 1   
     3     1    68 1   
     4     1    69 1   
     5     2     3 ar  
     6     2    50 ar  
     7     3     4 ar  
     8     3    70 1   
     9     4     5 1   
    10     4     6 ar  
    11     5    71 1   
    12     5    72 1   
    13     5    73 1   
    14     6     7 1   
    15     6    51 ar  
    16     7     8 1   
    17     7    74 1   
    18     7    75 1   
    19     8     9 1   
    20     8    76 1   
    21     9    10 2   
    22     9    11 1   
    23    11    12 2   
    24    11    65 1   
    25    12    13 1   
    26    12    77 1   
    27    13    14 2   
    28    13    78 1   
    29    14    15 ar  
    30    14    64 ar  
    31    15    16 ar  
    32    15    79 1   
    33    16    17 ar  
    34    16    80 1   
    35    17    18 2   
    36    17    63 ar  
    37    18    19 1   
    38    18    81 1   
    39    19    20 2   
    40    19    82 1   
    41    20    21 1   
    42    20    61 1   
    43    21    22 2   
    44    21    23 1   
    45    23    24 1   
    46    23    83 1   
    47    24    25 1   
    48    24    84 1   
    49    24    85 1   
    50    25    26 ar  
    51    25    59 ar  
    52    26    27 1   
    53    26    28 ar  
    54    27    86 1   
    55    27    87 1   
    56    27    88 1   
    57    28    29 ar  
    58    28    89 1   
    59    29    30 1   
    60    29    31 ar  
    61    30    90 1   
    62    30    91 1   
    63    30    92 1   
    64    31    32 1   
    65    31    59 ar  
    66    32    33 1   
    67    32    93 1   
    68    32    94 1   
    69    33    34 1   
    70    33    95 1   
    71    34    35 2   
    72    34    36 1   
    73    36    37 2   
    74    36    57 1   
    75    37    38 1   
    76    37    96 1   
    77    38    39 2   
    78    38    97 1   
    79    39    40 ar  
    80    39    56 ar  
    81    40    41 ar  
    82    40    98 1   
    83    41    42 ar  
    84    41    99 1   
    85    42    43 2   
    86    42    55 ar  
    87    43    44 1   
    88    43   100 1   
    89    44    45 2   
    90    44   101 1   
    91    45    46 1   
    92    45    53 1   
    93    46    47 2   
    94    46    48 1   
    95    48    49 1   
    96    48   102 1   
    97    49    50 1   
    98    49   103 1   
    99    49   104 1   
   100    50    51 ar  
   101    51    52 1   
   102    52   105 1   
   103    52   106 1   
   104    52   107 1   
   105    53    54 1   
   106    53    55 1   
   107    54   108 1   
   108    54   109 1   
   109    54   110 1   
   110    55    56 ar  
   111    56    57 1   
   112    57    58 1   
   113    58   111 1   
   114    58   112 1   
   115    58   113 1   
   116    59    60 1   
   117    60   114 1   
   118    60   115 1   
   119    60   116 1   
   120    61    62 1   
   121    61    63 1   
   122    62   117 1   
   123    62   118 1   
   124    62   119 1   
   125    63    64 ar  
   126    64    65 1   
   127    65    66 1   
   128    66   120 1   
   129    66   121 1   
   130    66   122 1   
@<TRIPOS>SUBSTRUCTURE
     1 ASB         1 TEMP              0 ****  ****    0 ROOT
