@<TRIPOS>MOLECULE
URE
  129   132     1     0     0
SMALL
bcc


@<TRIPOS>ATOM
      1 C           -0.0230    -0.7400     8.3080 C          0 URE      -0.222767
      2 C1           0.2210    -0.2580     6.9010 C           0 URE       0.598100
      3 O           -0.7130    -0.0050     6.1790 O           0 URE      -0.625100
      4 C2           1.6310    -0.0930     6.3960 C          0 URE      -0.162067
      5 C3           1.6010     0.2630     4.9080 C          0 URE       0.031167
      6 H            2.6210     0.3200     4.5290 H          0 URE       0.082033
      7 S            0.6930    -1.0220     4.0000 S          0 URE      -0.228867
      8 C4           1.4620    -2.4990     4.7210 C          0 URE      -0.024633
      9 C5           1.4250    -3.6520     3.7180 C          0 URE      -0.011633
     10 N            0.5060    -4.6860     4.1880 N           0 URE      -0.521567
     11 C6          -0.4290    -5.2280     3.4120 C           0 URE       0.669867
     12 O1          -1.3400    -5.8200     3.9570 O           0 URE      -0.662267
     13 C7          -0.4420    -5.1630     1.9430 C          0 URE      -0.150267
     14 C8          -1.6410    -5.2620     1.2380 C          0 URE      -0.043500
     15 C9          -1.6680    -5.2040    -0.1480 C          0 URE      -0.150267
     16 C10         -0.4600    -5.0820    -0.8490 C          0 URE      -0.043500
     17 C11          0.7430    -4.9860    -0.1510 C          0 URE      -0.150267
     18 C12          0.7560    -5.0320     1.2390 C          0 URE      -0.043500
     19 C13          1.9990    -4.7880    -0.9120 C           0 URE       0.669867
     20 O2           3.0640    -4.6960    -0.3320 O           0 URE      -0.662267
     21 N1           1.9420    -4.7130    -2.2580 N           0 URE      -0.521567
     22 C14          3.1420    -4.3800    -3.0240 C          0 URE      -0.011633
     23 C15          2.9870    -2.9880    -3.6410 C          0 URE      -0.024633
     24 S1           3.8980    -1.7830    -2.6330 S          0 URE      -0.228867
     25 C16          3.4200    -0.2440    -3.4620 C          0 URE       0.031167
     26 H1           2.3330    -0.1890    -3.5280 H          0 URE       0.082033
     27 C17          4.0180    -0.2170    -4.8710 C          0 URE      -0.162067
     28 C18          5.5190    -0.3110    -4.7810 C           0 URE       0.598100
     29 C19          6.3560    -0.2170    -6.0310 C          0 URE      -0.222767
     30 O3           6.0520    -0.4620    -3.7080 O           0 URE      -0.625100
     31 S2           4.0390     1.1730    -2.5180 S          0 URE      -0.228867
     32 C20          3.9280     2.4750    -3.7780 C          0 URE      -0.024633
     33 C21          4.2170     3.8300    -3.1180 C          0 URE      -0.011633
     34 N2           3.1700     4.1120    -2.1310 N           0 URE      -0.521567
     35 C22          1.9070     4.3160    -2.5420 C           0 URE       0.669867
     36 O4           1.6850     4.4210    -3.7330 O           0 URE      -0.662267
     37 C23          0.7830     4.4160    -1.5930 C          0 URE      -0.150267
     38 C24          1.0310     4.4710    -0.2210 C          0 URE      -0.043500
     39 C25         -0.0260     4.5420     0.6850 C          0 URE      -0.150267
     40 C26         -1.3390     4.5670     0.2170 C          0 URE      -0.043500
     41 C27         -1.5880     4.4800    -1.1510 C          0 URE      -0.150267
     42 C28         -0.5320     4.4330    -2.0600 C          0 URE      -0.043500
     43 C29         -2.9840     4.3560    -1.6260 C           0 URE       0.669867
     44 O5          -3.2280     4.4060    -2.8150 O           0 URE      -0.662267
     45 N3          -3.9840     4.1880    -0.7420 N           0 URE      -0.521567
     46 C30         -5.3200     3.7860    -1.1860 C          0 URE      -0.011633
     47 C31         -5.5100     2.2960    -0.8820 C          0 URE      -0.024633
     48 S3          -5.7160     1.3680    -2.4230 S          0 URE      -0.228867
     49 C32         -5.8520    -0.3250    -1.7900 C          0 URE       0.031167
     50 H2          -6.6340    -0.3660    -1.0310 H          0 URE       0.082033
     51 C33         -6.2090    -1.2700    -2.9390 C          0 URE      -0.162067
     52 C34         -7.5880    -0.9390    -3.4510 C           0 URE       0.598100
     53 C35         -8.2150    -1.7870    -4.5270 C          0 URE      -0.222767
     54 O6          -8.1900     0.0050    -2.9980 O           0 URE      -0.625100
     55 S4          -4.2740    -0.8410    -1.0570 S          0 URE      -0.228867
     56 C36         -4.8590    -2.1710     0.0330 C          0 URE      -0.024633
     57 C37         -3.7350    -3.1900     0.2380 C          0 URE      -0.011633
     58 N4          -3.9290    -4.3370    -0.6520 N           0 URE      -0.521567
     59 C38         -2.9320    -5.1840    -0.8970 C           0 URE       0.669867
     60 O7          -3.0730    -5.9860    -1.7990 O           0 URE      -0.662267
     61 C39         -2.4100    -2.5390    -0.0670 C           0 URE       0.905767
     62 O8          -1.7870    -1.9780     0.8190 O           0 URE      -0.838133
     63 O9          -1.9600    -2.5750    -1.2000 O           0 URE      -0.838133
     64 C40         -6.3610     4.5890    -0.4500 C           0 URE       0.905767
     65 O10         -6.0190     5.4230     0.3720 O           0 URE      -0.838133
     66 O11         -7.5450     4.4060    -0.6760 O           0 URE      -0.838133
     67 C41          0.2380     4.5550     2.1390 C           0 URE       0.669867
     68 O12         -0.6870     4.6520     2.9230 O           0 URE      -0.662267
     69 N5           1.4970     4.4590     2.5960 N           0 URE      -0.521567
     70 C42          1.7640     4.3400     4.0320 C          0 URE      -0.011633
     71 C43          2.2320     2.9120     4.3370 C          0 URE      -0.024633
     72 S5           0.7870     1.8650     4.6890 S          0 URE      -0.228867
     73 C44          2.8410     5.3190     4.4260 C           0 URE       0.905767
     74 O13          3.3390     6.0480     3.5860 O           0 URE      -0.838133
     75 O14          3.2130     5.3800     5.5860 O           0 URE      -0.838133
     76 C45          5.5580     3.7820    -2.4320 C           0 URE       0.905767
     77 O15          6.5660     4.0950    -3.0410 O           0 URE      -0.838133
     78 O16          5.6340     3.4300    -1.2670 O           0 URE      -0.838133
     79 C46          4.3410    -4.3930    -2.1110 C           0 URE       0.905767
     80 O17          5.1830    -5.2680    -2.2230 O           0 URE      -0.838133
     81 O18          4.4680    -3.5290    -1.2600 O           0 URE      -0.838133
     82 C47          0.9600    -3.1370     2.3800 C           0 URE       0.905767
     83 O19          1.7660    -2.9510     1.4850 O           0 URE      -0.838133
     84 O20         -0.2230    -2.9070     2.1930 O           0 URE      -0.838133
     85 H3          -1.0960    -0.7970     8.4910 H          0 URE       0.086922
     86 H4           0.4200    -1.7280     8.4360 H          0 URE       0.086922
     87 H5           0.4290    -0.0450     9.0140 H          0 URE       0.086922
     88 H6           2.1240     0.7060     6.9500 H          0 URE       0.070367
     89 H7           2.1790    -1.0240     6.5360 H          0 URE       0.070367
     90 H8           2.4970    -2.2780     4.9800 H          0 URE       0.063867
     91 H9           0.9190    -2.7860     5.6220 H          0 URE       0.063867
     92 H10          2.4240    -4.0740     3.6160 H          0 URE       0.074700
     93 H11          0.5810    -4.9910     5.1050 H          0 URE       0.323833
     94 H12         -2.5660    -5.3880     1.7810 H          0 URE       0.165500
     95 H13         -0.4610    -5.0620    -1.9280 H          0 URE       0.165500
     96 H14          1.6930    -4.9650     1.7730 H          0 URE       0.165500
     97 H15          1.1040    -4.8790    -2.7170 H          0 URE       0.323833
     98 H16          3.2820    -5.1140    -3.8170 H          0 URE       0.074700
     99 H17          3.3880    -2.9920    -4.6550 H          0 URE       0.063867
    100 H18          1.9320    -2.7170    -3.6670 H          0 URE       0.063867
    101 H19          3.6340    -1.0610    -5.4440 H          0 URE       0.070367
    102 H20          3.7410     0.7140    -5.3650 H          0 URE       0.070367
    103 H21          6.6140     0.8260    -6.2170 H          0 URE       0.086922
    104 H22          7.2680    -0.8000    -5.9030 H          0 URE       0.086922
    105 H23          5.7910    -0.6070    -6.8770 H          0 URE       0.086922
    106 H24          4.6610     2.2880    -4.5630 H          0 URE       0.063867
    107 H25          2.9260     2.4840    -4.2060 H          0 URE       0.063867
    108 H26          4.2220     4.6120    -3.8780 H          0 URE       0.074700
    109 H27          3.3870     4.1490    -1.1870 H          0 URE       0.323833
    110 H28          2.0480     4.4570     0.1410 H          0 URE       0.165500
    111 H29         -2.1600     4.6530     0.9130 H          0 URE       0.165500
    112 H30         -0.7310     4.4090    -3.1210 H          0 URE       0.165500
    113 H31         -3.8170     4.3340     0.2030 H          0 URE       0.323833
    114 H32         -5.4150     3.9550    -2.2590 H          0 URE       0.074700
    115 H33         -4.6370     1.9210    -0.3480 H          0 URE       0.063867
    116 H34         -6.3950     2.1640    -0.2600 H          0 URE       0.063867
    117 H35         -5.4850    -1.1520    -3.7450 H          0 URE       0.070367
    118 H36         -6.1910    -2.2990    -2.5820 H          0 URE       0.070367
    119 H37         -8.7790    -2.5990    -4.0680 H          0 URE       0.086922
    120 H38         -8.8860    -1.1740    -5.1280 H          0 URE       0.086922
    121 H39         -7.4340    -2.2020    -5.1640 H          0 URE       0.086922
    122 H40         -5.1500    -1.7510     0.9960 H          0 URE       0.063867
    123 H41         -5.7180    -2.6640    -0.4240 H          0 URE       0.063867
    124 H42         -3.7390    -3.5300     1.2730 H          0 URE       0.074700
    125 H43         -4.7950    -4.4840    -1.0630 H          0 URE       0.323833
    126 H44          2.2370     4.4670     1.9700 H          0 URE       0.323833
    127 H45          0.8530     4.5530     4.5910 H          0 URE       0.074700
    128 H46          2.7710     2.5140     3.4770 H          0 URE       0.063867
    129 H47          2.8900     2.9230     5.2050 H          0 URE       0.063867
@<TRIPOS>BOND
     1     1     2 1   
     2     1    85 1   
     3     1    86 1   
     4     1    87 1   
     5     2     3 2   
     6     2     4 1   
     7     4     5 1   
     8     4    88 1   
     9     4    89 1   
    10     5     6 1   
    11     5     7 1   
    12     5    72 1   
    13     7     8 1   
    14     8     9 1   
    15     8    90 1   
    16     8    91 1   
    17     9    10 1   
    18     9    82 1   
    19     9    92 1   
    20    10    11 1   
    21    10    93 1   
    22    11    12 2   
    23    11    13 1   
    24    13    14 ar  
    25    13    18 ar  
    26    14    15 ar  
    27    14    94 1   
    28    15    16 ar  
    29    15    59 1   
    30    16    17 ar  
    31    16    95 1   
    32    17    18 ar  
    33    17    19 1   
    34    18    96 1   
    35    19    20 2   
    36    19    21 1   
    37    21    22 1   
    38    21    97 1   
    39    22    23 1   
    40    22    79 1   
    41    22    98 1   
    42    23    24 1   
    43    23    99 1   
    44    23   100 1   
    45    24    25 1   
    46    25    26 1   
    47    25    27 1   
    48    25    31 1   
    49    27    28 1   
    50    27   101 1   
    51    27   102 1   
    52    28    29 1   
    53    28    30 2   
    54    29   103 1   
    55    29   104 1   
    56    29   105 1   
    57    31    32 1   
    58    32    33 1   
    59    32   106 1   
    60    32   107 1   
    61    33    34 1   
    62    33    76 1   
    63    33   108 1   
    64    34    35 1   
    65    34   109 1   
    66    35    36 2   
    67    35    37 1   
    68    37    38 ar  
    69    37    42 ar  
    70    38    39 ar  
    71    38   110 1   
    72    39    40 ar  
    73    39    67 1   
    74    40    41 ar  
    75    40   111 1   
    76    41    42 ar  
    77    41    43 1   
    78    42   112 1   
    79    43    44 2   
    80    43    45 1   
    81    45    46 1   
    82    45   113 1   
    83    46    47 1   
    84    46    64 1   
    85    46   114 1   
    86    47    48 1   
    87    47   115 1   
    88    47   116 1   
    89    48    49 1   
    90    49    50 1   
    91    49    51 1   
    92    49    55 1   
    93    51    52 1   
    94    51   117 1   
    95    51   118 1   
    96    52    53 1   
    97    52    54 2   
    98    53   119 1   
    99    53   120 1   
   100    53   121 1   
   101    55    56 1   
   102    56    57 1   
   103    56   122 1   
   104    56   123 1   
   105    57    58 1   
   106    57    61 1   
   107    57   124 1   
   108    58    59 1   
   109    58   125 1   
   110    59    60 2   
   111    61    62 1   
   112    61    63 1   
   113    64    65 1   
   114    64    66 1   
   115    67    68 2   
   116    67    69 1   
   117    69    70 1   
   118    69   126 1   
   119    70    71 1   
   120    70    73 1   
   121    70   127 1   
   122    71    72 1   
   123    71   128 1   
   124    71   129 1   
   125    73    74 1   
   126    73    75 1   
   127    76    77 1   
   128    76    78 1   
   129    79    80 1   
   130    79    81 1   
   131    82    83 1   
   132    82    84 1   
@<TRIPOS>SUBSTRUCTURE
     1 URE         1 TEMP              0 ****  ****    0 ROOT
