@<TRIPOS>MOLECULE
URE
  118   121     1     0     0
SMALL
bcc


@<TRIPOS>ATOM
      1 C           -3.1260    -2.8940    -6.1680 C          0 URE      -0.223600
      2 C1          -1.9830    -2.4730    -5.2810 C           0 URE       0.614100
      3 O           -1.9340    -2.8550    -4.1370 O           0 URE      -0.621100
      4 C2          -0.8990    -1.5770    -5.8240 C          0 URE      -0.184900
      5 C3           0.0600    -1.1960    -4.6950 C          0 URE       0.069500
      6 S           -0.8730    -0.4390    -3.3330 S          0 URE      -0.264950
      7 C4          -1.9600     0.6620    -4.2760 C          0 URE      -0.014800
      8 C5          -2.8780     1.4310    -3.3160 C          0 URE      -0.012550
      9 N           -3.1310     2.7620    -3.8750 N           0 URE      -0.524150
     10 C6          -3.0110     3.8690    -3.1470 C           0 URE       0.670700
     11 O1          -2.9710     4.9310    -3.7380 O           0 URE      -0.661100
     12 C7          -2.9250     3.9010    -1.6830 C          0 URE      -0.150350
     13 C8          -3.7220     3.0670    -0.9050 C          0 URE      -0.051000
     14 C9          -3.6520     3.1240     0.4830 C          0 URE      -0.150350
     15 C10         -2.7700     4.0110     1.1020 C          0 URE      -0.041750
     16 C11         -1.9050     4.7860     0.3270 C          0 URE      -0.157100
     17 C12         -2.0040     4.7500    -1.0630 C          0 URE      -0.041750
     18 C13         -0.8390     5.5730     0.9740 C           0 URE       0.671700
     19 O2          -0.8590     5.7160     2.1810 O           0 URE      -0.629100
     20 N1           0.1490     6.1340     0.2680 N           0 URE      -0.517900
     21 C14          1.4790     6.3140     0.8570 C          0 URE       0.004700
     22 C15          2.1060     4.9310     1.0570 C          0 URE       0.012700
     23 S1           3.5550     5.0390     2.1370 S          0 URE      -0.313600
     24 S2           4.5640     3.3470     1.5530 S          0 URE      -0.313600
     25 C16          4.8790     2.5870     3.1700 C          0 URE       0.012700
     26 C17          5.8650     1.4290     2.9960 C          0 URE       0.004700
     27 N2           5.1380     0.1870     2.7400 N           0 URE      -0.517900
     28 C18          5.1430    -0.3820     1.5220 C           0 URE       0.671700
     29 O3           5.8720     0.0510     0.6520 O           0 URE      -0.629100
     30 C19          4.2610    -1.5370     1.2420 C          0 URE      -0.157100
     31 C20          4.2120    -2.0620    -0.0520 C          0 URE      -0.041750
     32 C21          3.3820    -3.1420    -0.3340 C          0 URE      -0.150350
     33 C22          2.6220    -3.7220     0.6880 C          0 URE      -0.051000
     34 C23          2.6570    -3.1870     1.9740 C          0 URE      -0.150350
     35 C24          3.4850    -2.1030     2.2550 C          0 URE      -0.041750
     36 C25          1.7750    -3.7300     3.0250 C           0 URE       0.670700
     37 O4           1.8990    -3.3340     4.1680 O           0 URE      -0.661100
     38 N3           0.8390    -4.6500     2.7490 N           0 URE      -0.524150
     39 C26         -0.1840    -5.0360     3.7140 C          0 URE      -0.012550
     40 C27         -1.2410    -3.9440     3.8620 C          0 URE      -0.014800
     41 S3          -1.7930    -3.3790     2.2320 S          0 URE      -0.264950
     42 C28         -3.4440    -2.7610     2.6440 C          0 URE       0.069500
     43 C29         -3.6560    -2.8440     4.1570 C          0 URE      -0.184900
     44 C30         -2.6660    -1.9450     4.8520 C           0 URE       0.614100
     45 C31         -2.5840    -1.9370     6.3570 C          0 URE      -0.223600
     46 O5          -1.9400    -1.2310     4.2040 O           0 URE      -0.621100
     47 S4          -3.6040    -1.0350     2.1060 S          0 URE      -0.264950
     48 C32         -5.2790    -1.0690     1.4140 C          0 URE      -0.014800
     49 C33         -5.9410     0.2990     1.5760 C          0 URE      -0.012550
     50 N4          -5.2600     1.2960     0.7460 N           0 URE      -0.524150
     51 C34         -4.4740     2.2190     1.3110 C           0 URE       0.670700
     52 O6          -4.4390     2.3130     2.5220 O           0 URE      -0.661100
     53 C35         -7.3860     0.2060     1.1590 C           0 URE       0.907600
     54 O7          -8.2400    -0.0790     1.9810 O           0 URE      -0.842925
     55 O8          -7.7010     0.4160     0.0000 O           0 URE      -0.842925
     56 C36         -0.8480    -6.3060     3.2500 C           0 URE       0.907600
     57 O9          -0.4930    -6.8340     2.2090 O           0 URE      -0.842925
     58 O10         -1.7390    -6.8070     3.9140 O           0 URE      -0.842925
     59 C37          3.2470    -3.6430    -1.7170 C           0 URE       0.670700
     60 O11          2.5850    -4.6400    -1.9310 O           0 URE      -0.661100
     61 N5           3.8450    -3.0130    -2.7420 N           0 URE      -0.524150
     62 C38          3.5370    -3.4060    -4.1220 C          0 URE      -0.012550
     63 C39          2.5670    -2.3950    -4.7340 C          0 URE      -0.014800
     64 S5           0.9000    -2.6860    -4.0840 S          0 URE      -0.264950
     65 C40          4.8080    -3.4360    -4.9320 C           0 URE       0.907600
     66 O12          5.8720    -3.1560    -4.4070 O           0 URE      -0.842925
     67 O13          4.7720    -3.7400    -6.1120 O           0 URE      -0.842925
     68 C41          6.7790     1.7210     1.8340 C           0 URE       0.903100
     69 O14          6.7080     2.7930     1.2560 O           0 URE      -0.791050
     70 O15          7.5910     0.8860     1.4710 O           0 URE      -0.791050
     71 C42          2.3400     7.1330    -0.0700 C           0 URE       0.903100
     72 O16          1.8860     7.5320    -1.1290 O           0 URE      -0.791050
     73 O17          3.4890     7.3960     0.2390 O           0 URE      -0.791050
     74 C43         -4.1820     0.6910    -3.1620 C           0 URE       0.907600
     75 O18         -4.3080    -0.1470    -2.2850 O           0 URE      -0.842925
     76 O19         -5.1110     0.9300    -3.9150 O           0 URE      -0.842925
     77 H           -3.8050    -3.5360    -5.6050 H          0 URE       0.082700
     78 H1          -3.6640    -2.0110    -6.5120 H          0 URE       0.082700
     79 H2          -2.7380    -3.4410    -7.0270 H          0 URE       0.082700
     80 H3          -0.3510    -2.1020    -6.6060 H          0 URE       0.081950
     81 H4          -1.3490    -0.6740    -6.2390 H          0 URE       0.081950
     82 H5           0.8000    -0.4870    -5.0680 H          0 URE       0.081700
     83 H6          -1.3550     1.3700    -4.8430 H          0 URE       0.065700
     84 H7          -2.5660     0.0720    -4.9630 H          0 URE       0.065700
     85 H8          -2.3930     1.5280    -2.3450 H          0 URE       0.083950
     86 H9          -3.3930     2.8380    -4.8060 H          0 URE       0.322000
     87 H10         -4.3980     2.3720    -1.3810 H          0 URE       0.157000
     88 H11         -2.7560     4.0980     2.1780 H          0 URE       0.163750
     89 H12         -1.3650     5.3810    -1.6640 H          0 URE       0.163750
     90 H13         -0.0170     6.4240    -0.6430 H          0 URE       0.308500
     91 H14          1.3900     6.8190     1.8190 H          0 URE       0.077200
     92 H15          1.3710     4.2640     1.5070 H          0 URE       0.060450
     93 H16          2.4080     4.5300     0.0890 H          0 URE       0.060450
     94 H17          5.3040     3.3290     3.8450 H          0 URE       0.060450
     95 H18          3.9430     2.2090     3.5840 H          0 URE       0.060450
     96 H19          6.4590     1.3200     3.9030 H          0 URE       0.077200
     97 H20          4.6420    -0.2320     3.4610 H          0 URE       0.308500
     98 H21          4.8170    -1.6280    -0.8330 H          0 URE       0.163750
     99 H22          2.0080    -4.5860     0.4800 H          0 URE       0.157000
    100 H23          3.5260    -1.7010     3.2560 H          0 URE       0.163750
    101 H24          0.8420    -5.0730     1.8770 H          0 URE       0.322000
    102 H25          0.2850    -5.2120     4.6820 H          0 URE       0.083950
    103 H26         -2.0930    -4.3400     4.4150 H          0 URE       0.065700
    104 H27         -0.8170    -3.1030     4.4110 H          0 URE       0.065700
    105 H28         -4.1950    -3.3680     2.1390 H          0 URE       0.081700
    106 H29         -4.6690    -2.5250     4.4000 H          0 URE       0.081950
    107 H30         -3.5080    -3.8720     4.4890 H          0 URE       0.081950
    108 H31         -1.8600    -2.6830     6.6850 H          0 URE       0.082700
    109 H32         -2.2690    -0.9500     6.6990 H          0 URE       0.082700
    110 H33         -3.5620    -2.1710     6.7760 H          0 URE       0.082700
    111 H34         -5.2280    -1.3230     0.3550 H          0 URE       0.065700
    112 H35         -5.8710    -1.8210     1.9360 H          0 URE       0.065700
    113 H36         -5.8880     0.6030     2.6210 H          0 URE       0.083950
    114 H37         -5.3800     1.2850    -0.2160 H          0 URE       0.322000
    115 H38          4.4800    -2.3010    -2.5700 H          0 URE       0.322000
    116 H39          3.0810    -4.3950    -4.1260 H          0 URE       0.083950
    117 H40          2.8870    -1.3850    -4.4780 H          0 URE       0.065700
    118 H41          2.5600    -2.5090    -5.8180 H          0 URE       0.065700
@<TRIPOS>BOND
     1     1     2 1   
     2     1    77 1   
     3     1    78 1   
     4     1    79 1   
     5     2     3 2   
     6     2     4 1   
     7     4     5 1   
     8     4    80 1   
     9     4    81 1   
    10     5     6 1   
    11     5    64 1   
    12     5    82 1   
    13     6     7 1   
    14     7     8 1   
    15     7    83 1   
    16     7    84 1   
    17     8     9 1   
    18     8    74 1   
    19     8    85 1   
    20     9    10 1   
    21     9    86 1   
    22    10    11 2   
    23    10    12 1   
    24    12    13 ar  
    25    12    17 ar  
    26    13    14 ar  
    27    13    87 1   
    28    14    15 ar  
    29    14    51 1   
    30    15    16 ar  
    31    15    88 1   
    32    16    17 ar  
    33    16    18 1   
    34    17    89 1   
    35    18    19 2   
    36    18    20 1   
    37    20    21 1   
    38    20    90 1   
    39    21    22 1   
    40    21    71 1   
    41    21    91 1   
    42    22    23 1   
    43    22    92 1   
    44    22    93 1   
    45    23    24 1   
    46    24    25 1   
    47    25    26 1   
    48    25    94 1   
    49    25    95 1   
    50    26    27 1   
    51    26    68 1   
    52    26    96 1   
    53    27    28 1   
    54    27    97 1   
    55    28    29 2   
    56    28    30 1   
    57    30    31 ar  
    58    30    35 ar  
    59    31    32 ar  
    60    31    98 1   
    61    32    33 ar  
    62    32    59 1   
    63    33    34 ar  
    64    33    99 1   
    65    34    35 ar  
    66    34    36 1   
    67    35   100 1   
    68    36    37 2   
    69    36    38 1   
    70    38    39 1   
    71    38   101 1   
    72    39    40 1   
    73    39    56 1   
    74    39   102 1   
    75    40    41 1   
    76    40   103 1   
    77    40   104 1   
    78    41    42 1   
    79    42    43 1   
    80    42    47 1   
    81    42   105 1   
    82    43    44 1   
    83    43   106 1   
    84    43   107 1   
    85    44    45 1   
    86    44    46 2   
    87    45   108 1   
    88    45   109 1   
    89    45   110 1   
    90    47    48 1   
    91    48    49 1   
    92    48   111 1   
    93    48   112 1   
    94    49    50 1   
    95    49    53 1   
    96    49   113 1   
    97    50    51 1   
    98    50   114 1   
    99    51    52 2   
   100    53    54 1   
   101    53    55 1   
   102    56    57 1   
   103    56    58 1   
   104    59    60 2   
   105    59    61 1   
   106    61    62 1   
   107    61   115 1   
   108    62    63 1   
   109    62    65 1   
   110    62   116 1   
   111    63    64 1   
   112    63   117 1   
   113    63   118 1   
   114    65    66 1   
   115    65    67 1   
   116    68    69 1   
   117    68    70 1   
   118    71    72 1   
   119    71    73 1   
   120    74    75 1   
   121    74    76 1   
@<TRIPOS>SUBSTRUCTURE
     1 URE         1 TEMP              0 ****  ****    0 ROOT
