@<TRIPOS>MOLECULE
182
  144   152     1     0     0
SMALL
bcc


@<TRIPOS>ATOM
      1 C            8.7680     5.4170    -0.3320 C          0 182      -0.088433
      2 C1           9.3680     4.0110    -0.4000 C          0 182      -0.006700
      3 C2          10.0210     3.8010    -1.7670 C          0 182      -0.088433
      4 C3          10.4220     3.8540     0.6980 C          0 182      -0.088433
      5 C4           8.2780     2.9900    -0.2010 C          0 182      -0.068300
      6 C5           6.9690     3.4100     0.0030 C          0 182      -0.087000
      7 C6           5.9590     2.4910     0.1760 C          0 182       0.038600
      8 C7           6.2670     1.1220     0.1670 C          0 182      -0.085200
      9 N            5.4750    -0.0020     0.3240 N          0 182      -0.153300
     10 C8           6.2410    -1.1490     0.2300 C          0 182      -0.085200
     11 C9           7.5740    -0.7740     0.0110 C          0 182      -0.052000
     12 C10          8.5540    -1.7560    -0.1200 C          0 182      -0.085000
     13 C11          8.2080    -3.0830    -0.0240 C          0 182      -0.068300
     14 C12          6.8930    -3.4640     0.1930 C          0 182      -0.087000
     15 C13          5.9010    -2.5090     0.3080 C          0 182       0.038600
     16 N1           4.5590    -2.8690     0.4860 N           0 182      -0.431100
     17 C14          4.0270    -4.0160     0.0740 C           0 182       0.564400
     18 S            4.8830    -4.9930    -1.0410 S           0 182      -0.556400
     19 N2           2.8130    -4.4610     0.5110 N           0 182      -0.507900
     20 C15          2.4070    -5.7690    -0.0070 C          0 182       0.104300
     21 C16          1.1150    -6.2960     0.5260 C          0 182      -0.126300
     22 C17         -0.0800    -5.8540     0.0130 C          0 182      -0.123000
     23 C18         -1.2790    -6.3450     0.4910 C          0 182      -0.126300
     24 C19         -2.5770    -5.8670    -0.0800 C          0 182       0.104300
     25 N3          -2.9990    -4.5550     0.4160 N           0 182      -0.507900
     26 C20         -4.1510    -4.0550    -0.1270 C           0 182       0.564400
     27 S1          -4.9760    -4.9380    -1.3420 S           0 182      -0.556400
     28 N4          -4.5950    -2.8540     0.2990 N           0 182      -0.431100
     29 C21         -5.9420    -2.4770     0.1220 C          0 182       0.038600
     30 C22         -6.2560    -1.1110     0.1360 C          0 182      -0.085200
     31 N5          -5.4720     0.0150     0.3020 N          0 182      -0.153300
     32 C23         -6.2420     1.1610     0.2200 C          0 182      -0.085200
     33 C24         -7.5710     0.7770     0.0060 C          0 182      -0.052000
     34 C25         -8.5590     1.7520    -0.1130 C          0 182      -0.085000
     35 C26         -8.2180     3.0810    -0.0130 C          0 182      -0.068300
     36 C27         -6.9040     3.4690     0.1990 C          0 182      -0.087000
     37 C28         -5.9080     2.5210     0.3050 C          0 182       0.038600
     38 N6          -4.5650     2.8830     0.4770 N           0 182      -0.431100
     39 C29         -4.0390     4.0320     0.0640 C           0 182       0.564400
     40 S2          -4.9040     5.0150    -1.0370 S           0 182      -0.556400
     41 N7          -2.8200     4.4740     0.4910 N           0 182      -0.507900
     42 C30         -2.4150     5.7810    -0.0310 C          0 182       0.104300
     43 C31         -1.1190     6.3030     0.5050 C          0 182      -0.126300
     44 C32          0.0750     5.8510    -0.0040 C          0 182      -0.123000
     45 C33          1.2750     6.3360     0.4770 C          0 182      -0.126300
     46 C34          2.5710     5.8470    -0.0900 C          0 182       0.104300
     47 N8           2.9990     4.5410     0.4210 N           0 182      -0.507900
     48 C35          4.1570     4.0440    -0.1050 C           0 182       0.564400
     49 S3           4.9860     4.9140    -1.3260 S           0 182      -0.556400
     50 N9           4.6080     2.8530     0.3470 N           0 182      -0.431100
     51 C36          1.2800     7.2840     1.4860 C          0 182      -0.097000
     52 C37          0.0780     7.7280     1.9970 C          0 182      -0.130000
     53 C38         -1.1210     7.2460     1.5160 C          0 182      -0.097000
     54 C39         -9.2890     4.1340    -0.1380 C          0 182      -0.006700
     55 C40        -10.3360     3.9300     0.9590 C          0 182      -0.088433
     56 C41         -8.6600     5.5210     0.0080 C          0 182      -0.088433
     57 C42         -9.9580     4.0200    -1.5090 C          0 182      -0.088433
     58 C43         -7.5820    -0.6960    -0.0450 C          0 182      -0.052000
     59 C44         -8.5820    -1.6510    -0.2250 C          0 182      -0.085000
     60 C45         -8.2610    -2.9900    -0.2080 C          0 182      -0.068300
     61 C46         -6.9500    -3.4080    -0.0240 C          0 182      -0.087000
     62 C47         -9.3480    -4.0170    -0.3900 C          0 182      -0.006700
     63 C48        -10.0230    -3.8100    -1.7480 C          0 182      -0.088433
     64 C49         -8.7390    -5.4200    -0.3320 C          0 182      -0.088433
     65 C50        -10.3860    -3.8650     0.7240 C          0 182      -0.088433
     66 C51         -1.2800    -7.2920     1.5030 C          0 182      -0.097000
     67 C52         -0.0760    -7.7250     2.0180 C          0 182      -0.130000
     68 C53          1.1210    -7.2340     1.5410 C          0 182      -0.097000
     69 C54          9.2720    -4.1410    -0.1610 C          0 182      -0.006700
     70 C55         10.3260    -3.9490     0.9320 C          0 182      -0.088433
     71 C56          8.6360    -5.5250    -0.0180 C          0 182      -0.088433
     72 C57          9.9340    -4.0240    -1.5350 C          0 182      -0.088433
     73 C58          7.5880     0.6990    -0.0310 C          0 182      -0.052000
     74 C59          8.5880     1.6490    -0.2180 C          0 182      -0.085000
     75 H            8.0170     5.5300    -1.1150 H          0 182       0.039144
     76 H1           8.3020     5.5670     0.6420 H          0 182       0.039144
     77 H2           9.5560     6.1560    -0.4760 H          0 182       0.039144
     78 H3          10.8100     4.5400    -1.9110 H          0 182       0.039144
     79 H4          10.4490     2.7990    -1.8150 H          0 182       0.039144
     80 H5           9.2710     3.9130    -2.5500 H          0 182       0.039144
     81 H6           9.9560     4.0040     1.6730 H          0 182       0.039144
     82 H7          10.8490     2.8520     0.6500 H          0 182       0.039144
     83 H8          11.2100     4.5930     0.5550 H          0 182       0.039144
     84 H9           6.7570     4.4680     0.0440 H          0 182       0.177000
     85 H10          4.5170     0.0110     0.4800 H          0 182       0.247700
     86 H11          9.5810    -1.4750    -0.3000 H          0 182       0.143000
     87 H12          6.6590    -4.5150     0.2950 H          0 182       0.177000
     88 H13          3.9730    -2.2330     0.9470 H          0 182       0.310500
     89 H14          2.2620    -3.9450     1.1170 H          0 182       0.287500
     90 H15          2.3250    -5.6960    -1.0930 H          0 182       0.093200
     91 H16          3.1910    -6.4910     0.2240 H          0 182       0.093200
     92 H17         -0.0810    -5.1120    -0.7730 H          0 182       0.128000
     93 H18         -2.4800    -5.8120    -1.1650 H          0 182       0.093200
     94 H19         -3.3540    -6.5940     0.1590 H          0 182       0.093200
     95 H20         -2.4940    -4.0720     1.0860 H          0 182       0.287500
     96 H21         -3.9750    -2.2390     0.7430 H          0 182       0.310500
     97 H22         -4.5130     0.0030     0.4570 H          0 182       0.247700
     98 H23         -9.5840     1.4670    -0.2900 H          0 182       0.143000
     99 H24         -6.6760     4.5200     0.3030 H          0 182       0.177000
    100 H25         -3.9760     2.2490     0.9350 H          0 182       0.310500
    101 H26         -2.2650     3.9570     1.0940 H          0 182       0.287500
    102 H27         -2.3320     5.7070    -1.1160 H          0 182       0.093200
    103 H28         -3.1970     6.5050     0.2010 H          0 182       0.093200
    104 H29          0.0740     5.1090    -0.7880 H          0 182       0.128000
    105 H30          2.4710     5.7790    -1.1740 H          0 182       0.093200
    106 H31          3.3460     6.5790     0.1360 H          0 182       0.093200
    107 H32          2.4910     4.0590     1.0890 H          0 182       0.287500
    108 H33          3.9950     2.2410     0.7990 H          0 182       0.310500
    109 H34          2.2120     7.6780     1.8660 H          0 182       0.149000
    110 H35          0.0770     8.4700     2.7820 H          0 182       0.142000
    111 H36         -2.0540     7.6070     1.9260 H          0 182       0.149000
    112 H37         -9.8590     4.0110     1.9350 H          0 182       0.039144
    113 H38        -11.1100     4.6920     0.8680 H          0 182       0.039144
    114 H39        -10.7840     2.9420     0.8540 H          0 182       0.039144
    115 H40         -7.9140     5.6660    -0.7730 H          0 182       0.039144
    116 H41         -9.4350     6.2830    -0.0820 H          0 182       0.039144
    117 H42         -8.1830     5.6020     0.9850 H          0 182       0.039144
    118 H43        -10.4060     3.0320    -1.6140 H          0 182       0.039144
    119 H44        -10.7330     4.7810    -1.6000 H          0 182       0.039144
    120 H45         -9.2120     4.1650    -2.2910 H          0 182       0.039144
    121 H46         -9.6040    -1.3400    -0.3800 H          0 182       0.143000
    122 H47         -6.7310    -4.4650     0.0260 H          0 182       0.177000
    123 H48         -9.2830    -3.9180    -2.5410 H          0 182       0.039144
    124 H49        -10.8090    -4.5530    -1.8800 H          0 182       0.039144
    125 H50        -10.4560    -2.8110    -1.7890 H          0 182       0.039144
    126 H51         -8.2580    -5.5670     0.6350 H          0 182       0.039144
    127 H52         -9.5250    -6.1630    -0.4650 H          0 182       0.039144
    128 H53         -8.0000    -5.5280    -1.1260 H          0 182       0.039144
    129 H54        -10.8190    -2.8660     0.6820 H          0 182       0.039144
    130 H55        -11.1720    -4.6080     0.5910 H          0 182       0.039144
    131 H56         -9.9050    -4.0130     1.6910 H          0 182       0.039144
    132 H57         -2.2090    -7.6940     1.8780 H          0 182       0.149000
    133 H58         -0.0710    -8.4640     2.8060 H          0 182       0.142000
    134 H59          2.0550    -7.5840     1.9560 H          0 182       0.149000
    135 H60          9.8540    -4.0330     1.9110 H          0 182       0.039144
    136 H61         11.0950    -4.7150     0.8330 H          0 182       0.039144
    137 H62         10.7790    -2.9630     0.8300 H          0 182       0.039144
    138 H63          7.8850    -5.6620    -0.7960 H          0 182       0.039144
    139 H64          9.4050    -6.2910    -0.1160 H          0 182       0.039144
    140 H65          8.1640    -5.6090     0.9610 H          0 182       0.039144
    141 H66         10.3880    -3.0380    -1.6370 H          0 182       0.039144
    142 H67         10.7040    -4.7900    -1.6340 H          0 182       0.039144
    143 H68          9.1840    -4.1610    -2.3130 H          0 182       0.039144
    144 H69          9.6080     1.3320    -0.3770 H          0 182       0.143000
@<TRIPOS>BOND
     1     1     2 1   
     2     1    75 1   
     3     1    76 1   
     4     1    77 1   
     5     2     3 1   
     6     2     4 1   
     7     2     5 1   
     8     3    78 1   
     9     3    79 1   
    10     3    80 1   
    11     4    81 1   
    12     4    82 1   
    13     4    83 1   
    14     5     6 ar  
    15     5    74 ar  
    16     6     7 ar  
    17     6    84 1   
    18     7     8 ar  
    19     7    50 1   
    20     8     9 1   
    21     8    73 ar  
    22     9    10 1   
    23     9    85 1   
    24    10    11 ar  
    25    10    15 ar  
    26    11    12 ar  
    27    11    73 1   
    28    12    13 ar  
    29    12    86 1   
    30    13    14 ar  
    31    13    69 1   
    32    14    15 ar  
    33    14    87 1   
    34    15    16 1   
    35    16    17 1   
    36    16    88 1   
    37    17    18 2   
    38    17    19 1   
    39    19    20 1   
    40    19    89 1   
    41    20    21 1   
    42    20    90 1   
    43    20    91 1   
    44    21    22 ar  
    45    21    68 ar  
    46    22    23 ar  
    47    22    92 1   
    48    23    24 1   
    49    23    66 ar  
    50    24    25 1   
    51    24    93 1   
    52    24    94 1   
    53    25    26 1   
    54    25    95 1   
    55    26    27 2   
    56    26    28 1   
    57    28    29 1   
    58    28    96 1   
    59    29    30 ar  
    60    29    61 ar  
    61    30    31 1   
    62    30    58 ar  
    63    31    32 1   
    64    31    97 1   
    65    32    33 ar  
    66    32    37 ar  
    67    33    34 ar  
    68    33    58 1   
    69    34    35 ar  
    70    34    98 1   
    71    35    36 ar  
    72    35    54 1   
    73    36    37 ar  
    74    36    99 1   
    75    37    38 1   
    76    38    39 1   
    77    38   100 1   
    78    39    40 2   
    79    39    41 1   
    80    41    42 1   
    81    41   101 1   
    82    42    43 1   
    83    42   102 1   
    84    42   103 1   
    85    43    44 ar  
    86    43    53 ar  
    87    44    45 ar  
    88    44   104 1   
    89    45    46 1   
    90    45    51 ar  
    91    46    47 1   
    92    46   105 1   
    93    46   106 1   
    94    47    48 1   
    95    47   107 1   
    96    48    49 2   
    97    48    50 1   
    98    50   108 1   
    99    51    52 ar  
   100    51   109 1   
   101    52    53 ar  
   102    52   110 1   
   103    53   111 1   
   104    54    55 1   
   105    54    56 1   
   106    54    57 1   
   107    55   112 1   
   108    55   113 1   
   109    55   114 1   
   110    56   115 1   
   111    56   116 1   
   112    56   117 1   
   113    57   118 1   
   114    57   119 1   
   115    57   120 1   
   116    58    59 ar  
   117    59    60 ar  
   118    59   121 1   
   119    60    61 ar  
   120    60    62 1   
   121    61   122 1   
   122    62    63 1   
   123    62    64 1   
   124    62    65 1   
   125    63   123 1   
   126    63   124 1   
   127    63   125 1   
   128    64   126 1   
   129    64   127 1   
   130    64   128 1   
   131    65   129 1   
   132    65   130 1   
   133    65   131 1   
   134    66    67 ar  
   135    66   132 1   
   136    67    68 ar  
   137    67   133 1   
   138    68   134 1   
   139    69    70 1   
   140    69    71 1   
   141    69    72 1   
   142    70   135 1   
   143    70   136 1   
   144    70   137 1   
   145    71   138 1   
   146    71   139 1   
   147    71   140 1   
   148    72   141 1   
   149    72   142 1   
   150    72   143 1   
   151    73    74 ar  
   152    74   144 1   
@<TRIPOS>SUBSTRUCTURE
     1 182         1 TEMP              0 ****  ****    0 ROOT
