@<TRIPOS>MOLECULE
136
   92    96     1     0     0
SMALL
bcc


@<TRIPOS>ATOM
      1 O           -2.8170    -7.2740    -0.1970 O           0 136      -0.594100
      2 C           -1.8410    -6.5660    -0.0470 C           0 136       0.570600
      3 N           -1.9780    -5.2080    -0.0990 N           0 136      -0.551900
      4 C1          -3.2490    -4.7220    -0.6740 C          0 136       0.063000
      5 C2          -4.1260    -4.1240     0.4170 C          0 136       0.063000
      6 N1          -4.8350    -2.9240    -0.0920 N           0 136      -0.551900
      7 C3          -6.1940    -3.0000    -0.0670 C           0 136       0.570600
      8 O1          -6.7270    -4.0830     0.0680 O           0 136      -0.594100
      9 C4          -7.0320    -1.7940    -0.2020 C          0 136       0.352300
     10 C5          -8.4210    -1.9480    -0.3180 C          0 136      -0.170300
     11 C6          -9.2250    -0.8250    -0.3790 C          0 136      -0.109000
     12 C7          -8.6210     0.4250    -0.3110 C          0 136      -0.170300
     13 C8          -7.2310     0.5090    -0.2100 C          0 136       0.352300
     14 N2          -6.4900    -0.5920    -0.2120 N          0 136      -0.654000
     15 C9          -6.6100     1.8350     0.0040 C           0 136       0.570600
     16 O2          -7.3050     2.7750     0.3360 O           0 136      -0.594100
     17 N3          -5.2670     2.0190    -0.1660 N           0 136      -0.551900
     18 C10         -4.7280     3.2410     0.4690 C          0 136       0.063000
     19 C11         -4.1720     4.1740    -0.5980 C          0 136       0.063000
     20 N4          -2.9420     4.8340    -0.1110 N           0 136      -0.551900
     21 C12         -3.0140     6.1840     0.0480 C           0 136       0.570600
     22 O3          -4.1000     6.7280     0.0370 O           0 136      -0.594100
     23 C13         -1.7980     6.9990     0.2350 C          0 136       0.352300
     24 N5          -0.6020     6.4560     0.1300 N          0 136      -0.654000
     25 C14          0.5050     7.1810     0.2100 C          0 136       0.352300
     26 C15          0.4390     8.5470     0.4890 C          0 136      -0.170300
     27 C16         -0.8030     9.1460     0.6650 C          0 136      -0.109000
     28 C17         -1.9370     8.3640     0.5330 C          0 136      -0.170300
     29 C18          1.8300     6.5660    -0.0270 C           0 136       0.570600
     30 O4           2.7920     7.2790    -0.2330 O           0 136      -0.594100
     31 N6           1.9870     5.2120    -0.0170 N           0 136      -0.551900
     32 C19          3.2460     4.7200    -0.6280 C          0 136       0.063000
     33 C20          4.1710     4.1700     0.4500 C          0 136       0.063000
     34 N7           4.8460     2.9510    -0.0350 N           0 136      -0.551900
     35 C21          6.2070     3.0120    -0.0670 C           0 136       0.570600
     36 O5           6.7550     4.0940     0.0220 O           0 136      -0.594100
     37 C22          7.0330     1.7940    -0.2060 C          0 136       0.352300
     38 N8           6.4910     0.5930    -0.1490 N          0 136      -0.654000
     39 C23          7.2310    -0.5080    -0.1570 C          0 136       0.352300
     40 C24          8.6150    -0.4300    -0.3280 C          0 136      -0.170300
     41 C25          9.2130     0.8150    -0.4750 C          0 136      -0.109000
     42 C26          8.4140     1.9420    -0.4120 C          0 136      -0.170300
     43 C27          6.6150    -1.8350     0.0490 C           0 136       0.570600
     44 O6           7.3130    -2.7610     0.4130 O           0 136      -0.594100
     45 N9           5.2850    -2.0470    -0.1570 N           0 136      -0.551900
     46 C28          4.7490    -3.2830     0.4670 C          0 136       0.063000
     47 C29          4.1640    -4.1860    -0.6150 C          0 136       0.063000
     48 N10          2.9410    -4.8460    -0.1210 N           0 136      -0.551900
     49 C30          3.0080    -6.1910     0.0370 C           0 136       0.570600
     50 O7           4.0910    -6.7410     0.0170 O           0 136      -0.594100
     51 C31          1.7860    -7.0010     0.2330 C          0 136       0.352300
     52 N11          0.5920    -6.4580     0.1070 N          0 136      -0.654000
     53 C32         -0.5170    -7.1830     0.1960 C          0 136       0.352300
     54 C33         -0.4550    -8.5380     0.5130 C          0 136      -0.170300
     55 C34          0.7860    -9.1350     0.7010 C          0 136      -0.109000
     56 C35          1.9200    -8.3630     0.5480 C          0 136      -0.170300
     57 H           -1.2880    -4.6050     0.2190 H          0 136       0.322500
     58 H1          -3.0370    -3.9600    -1.4250 H          0 136       0.068200
     59 H2          -3.7740    -5.5530    -1.1450 H          0 136       0.068200
     60 H3          -4.8570    -4.8660     0.7380 H          0 136       0.068200
     61 H4          -3.5040    -3.8420     1.2660 H          0 136       0.068200
     62 H5          -4.3640    -2.1410    -0.4190 H          0 136       0.322500
     63 H6          -8.8580    -2.9340    -0.3600 H          0 136       0.174500
     64 H7         -10.2970    -0.9170    -0.4770 H          0 136       0.154000
     65 H8          -9.2210     1.3230    -0.3370 H          0 136       0.174500
     66 H9          -4.7110     1.3990    -0.6630 H          0 136       0.322500
     67 H10         -5.5240     3.7480     1.0140 H          0 136       0.068200
     68 H11         -3.9320     2.9690     1.1630 H          0 136       0.068200
     69 H12         -3.9420     3.5990    -1.4950 H          0 136       0.068200
     70 H13         -4.9170     4.9320    -0.8390 H          0 136       0.068200
     71 H14         -2.1330     4.3350     0.0840 H          0 136       0.322500
     72 H15          1.3430     9.1330     0.5680 H          0 136       0.174500
     73 H16         -0.8810    10.1980     0.8990 H          0 136       0.154000
     74 H17         -2.9180     8.7980     0.6580 H          0 136       0.174500
     75 H18          1.3240     4.6140     0.3620 H          0 136       0.322500
     76 H19          3.0160     3.9310    -1.3440 H          0 136       0.068200
     77 H20          3.7410     5.5410    -1.1450 H          0 136       0.068200
     78 H21          4.9190     4.9220     0.7020 H          0 136       0.068200
     79 H22          3.5880     3.9310     1.3390 H          0 136       0.068200
     80 H23          4.3560     2.1610    -0.3120 H          0 136       0.322500
     81 H24          9.2140    -1.3280    -0.3440 H          0 136       0.174500
     82 H25         10.2770     0.9000    -0.6360 H          0 136       0.154000
     83 H26          8.8480     2.9250    -0.5190 H          0 136       0.174500
     84 H27          4.7320    -1.4380    -0.6710 H          0 136       0.322500
     85 H28          5.5540    -3.8080     0.9820 H          0 136       0.068200
     86 H29          3.9700    -3.0210     1.1820 H          0 136       0.068200
     87 H30          3.9220    -3.5880    -1.4940 H          0 136       0.068200
     88 H31          4.8980    -4.9450    -0.8890 H          0 136       0.068200
     89 H32          2.1350    -4.3450     0.0800 H          0 136       0.322500
     90 H33         -1.3600    -9.1190     0.6110 H          0 136       0.174500
     91 H34          0.8620   -10.1810     0.9600 H          0 136       0.154000
     92 H35          2.8990    -8.8000     0.6740 H          0 136       0.174500
@<TRIPOS>BOND
     1     1     2 2   
     2     2     3 1   
     3     2    53 1   
     4     3     4 1   
     5     3    57 1   
     6     4     5 1   
     7     4    58 1   
     8     4    59 1   
     9     5     6 1   
    10     5    60 1   
    11     5    61 1   
    12     6     7 1   
    13     6    62 1   
    14     7     8 2   
    15     7     9 1   
    16     9    10 ar  
    17     9    14 ar  
    18    10    11 ar  
    19    10    63 1   
    20    11    12 ar  
    21    11    64 1   
    22    12    13 ar  
    23    12    65 1   
    24    13    14 ar  
    25    13    15 1   
    26    15    16 2   
    27    15    17 1   
    28    17    18 1   
    29    17    66 1   
    30    18    19 1   
    31    18    67 1   
    32    18    68 1   
    33    19    20 1   
    34    19    69 1   
    35    19    70 1   
    36    20    21 1   
    37    20    71 1   
    38    21    22 2   
    39    21    23 1   
    40    23    24 ar  
    41    23    28 ar  
    42    24    25 ar  
    43    25    26 ar  
    44    25    29 1   
    45    26    27 ar  
    46    26    72 1   
    47    27    28 ar  
    48    27    73 1   
    49    28    74 1   
    50    29    30 2   
    51    29    31 1   
    52    31    32 1   
    53    31    75 1   
    54    32    33 1   
    55    32    76 1   
    56    32    77 1   
    57    33    34 1   
    58    33    78 1   
    59    33    79 1   
    60    34    35 1   
    61    34    80 1   
    62    35    36 2   
    63    35    37 1   
    64    37    38 ar  
    65    37    42 ar  
    66    38    39 ar  
    67    39    40 ar  
    68    39    43 1   
    69    40    41 ar  
    70    40    81 1   
    71    41    42 ar  
    72    41    82 1   
    73    42    83 1   
    74    43    44 2   
    75    43    45 1   
    76    45    46 1   
    77    45    84 1   
    78    46    47 1   
    79    46    85 1   
    80    46    86 1   
    81    47    48 1   
    82    47    87 1   
    83    47    88 1   
    84    48    49 1   
    85    48    89 1   
    86    49    50 2   
    87    49    51 1   
    88    51    52 ar  
    89    51    56 ar  
    90    52    53 ar  
    91    53    54 ar  
    92    54    55 ar  
    93    54    90 1   
    94    55    56 ar  
    95    55    91 1   
    96    56    92 1   
@<TRIPOS>SUBSTRUCTURE
     1 136         1 TEMP              0 ****  ****    0 ROOT
