@<TRIPOS>MOLECULE
87
   90   105     1     0     0
SMALL
bcc


@<TRIPOS>ATOM
      1 C1           1.6710     0.0710    -4.6760 C          1 87        0.277800
      2 N1           2.6480    -0.2360    -3.6340 N           1 87       -0.497100
      3 C2           3.1130    -1.5730    -3.2610 C          1 87        0.220300
      4 C3           3.9110    -1.3820    -1.9140 C          1 87        0.220300
      5 N2           3.8120     0.0470    -1.6060 N           1 87       -0.497100
      6 C4           3.0860     0.6720    -2.6430 C           1 87        0.789700
      7 O1           2.8810     1.9130    -2.6920 O           1 87       -0.574600
      8 C5           4.2400     0.7150    -0.3770 C          1 87        0.277800
      9 N3           3.1000     0.8730     0.5290 N           1 87       -0.497100
     10 C6           2.0240    -0.0970     0.7240 C          1 87        0.220300
     11 C7           1.1370     0.4790     1.8770 C          1 87        0.220300
     12 N4           1.7650     1.7410     2.2660 N           1 87       -0.497100
     13 C8           2.9280     1.9100     1.4760 C           1 87        0.789700
     14 O2           3.7280     2.8740     1.6100 O           1 87       -0.574600
     15 C9           1.3640     2.5850     3.3940 C          1 87        0.277800
     16 N5          -0.0930     2.6000     3.5170 N           1 87       -0.497100
     17 C10         -0.9140     1.7620     4.3950 C          1 87        0.220300
     18 C11         -2.4040     2.0400     3.9620 C          1 87        0.220300
     19 N6          -2.3220     3.0370     2.8930 N           1 87       -0.497100
     20 C12         -0.9570     3.3330     2.6750 C           1 87        0.789700
     21 O3          -0.5520     4.1840     1.8390 O           1 87       -0.574600
     22 C13         -3.4140     3.4210     2.0010 C          1 87        0.277800
     23 N7          -3.4350     2.5300     0.8420 N           1 87       -0.497100
     24 C14         -4.4080     1.4660     0.5800 C          1 87        0.220300
     25 C15         -3.9830     0.8530    -0.8000 C          1 87        0.220300
     26 N8          -2.9800     1.7680    -1.3380 N           1 87       -0.497100
     27 C16         -2.6860     2.7240    -0.3430 C           1 87        0.789700
     28 O4          -1.8850     3.6800    -0.5160 O           1 87       -0.574600
     29 C17         -2.6330     1.8850    -2.7480 C          1 87        0.277800
     30 N9          -1.6280     0.8840    -3.0830 N           1 87       -0.497100
     31 C18         -1.9280    -0.4950    -3.4570 C          1 87        0.220300
     32 C19         -0.6850    -0.9880    -4.2780 C          1 87        0.220300
     33 N10          0.3250     0.0590    -4.1050 N           1 87       -0.497100
     34 C20         -0.3010     1.1600    -3.4750 C           1 87        0.789700
     35 O5           0.2410     2.2880    -3.3350 O           1 87       -0.574600
     36 N11         -0.2890    -2.2460    -3.6550 N           1 87       -0.497100
     37 C21          0.9760    -2.9540    -3.8620 C          1 87        0.277800
     38 N12          1.9890    -2.4520    -2.9300 N           1 87       -0.497100
     39 C22          2.1020    -2.8100    -1.5670 C           1 87        0.789700
     40 O6           1.3340    -3.6240    -0.9900 O           1 87       -0.574600
     41 N13          3.1970    -2.1940    -0.9260 N           1 87       -0.497100
     42 C23          3.4600    -2.2620     0.5100 C          1 87        0.277800
     43 N14          2.5520    -1.3650     1.2270 N           1 87       -0.497100
     44 C24          2.0740    -1.5460     2.5450 C           1 87        0.789700
     45 O7           2.3800    -2.5290     3.2710 O           1 87       -0.574600
     46 N15          1.2170    -0.5000     2.9610 N           1 87       -0.497100
     47 C25          0.5590    -0.3980     4.2650 C          1 87        0.277800
     48 N16         -0.6970     0.3380     4.1360 N           1 87       -0.497100
     49 C26         -1.8870    -0.2010     3.6030 C           1 87        0.789700
     50 O8          -2.0290    -1.4220     3.3310 O           1 87       -0.574600
     51 N17         -2.9100     0.7640     3.4520 N           1 87       -0.497100
     52 C27         -4.2760     0.4950     2.9950 C          1 87        0.277800
     53 N18         -4.3010     0.3690     1.5370 N           1 87       -0.497100
     54 C28         -3.8270    -0.7570     0.8290 C           1 87        0.789700
     55 O9          -3.7880    -1.9150     1.3240 O           1 87       -0.574600
     56 N19         -3.4170    -0.4750    -0.4990 N           1 87       -0.497100
     57 C29         -2.0680    -0.9070    -0.8900 C          1 87        0.277800
     58 N20         -2.0160    -1.3780    -2.2810 N           1 87       -0.497100
     59 C30         -1.1660    -2.4740    -2.5710 C           1 87        0.789700
     60 O10         -1.2060    -3.5590    -1.9330 O           1 87       -0.574600
     61 H1           1.8890     1.0660    -5.1200 H          1 87        0.091400
     62 H2           1.7470    -0.6690    -5.4980 H          1 87        0.091400
     63 H3           3.7450    -2.0150    -4.0610 H          1 87        0.097700
     64 H4           4.9710    -1.7010    -2.0050 H          1 87        0.097700
     65 H5           5.0380     0.1310     0.1220 H          1 87        0.091400
     66 H6           4.6690     1.7090    -0.6280 H          1 87        0.091400
     67 H7           1.4330    -0.2410    -0.2070 H          1 87        0.097700
     68 H8           0.0880     0.6340     1.5410 H          1 87        0.097700
     69 H9           1.8270     2.2080     4.3270 H          1 87        0.091400
     70 H10          1.7300     3.6230     3.2420 H          1 87        0.091400
     71 H11         -0.7340     2.0070     5.4640 H          1 87        0.097700
     72 H12         -3.0220     2.4080     4.8090 H          1 87        0.097700
     73 H13         -4.3810     3.3740     2.5420 H          1 87        0.091400
     74 H14         -3.2820     4.4740     1.6710 H          1 87        0.091400
     75 H15         -5.4420     1.8730     0.5510 H          1 87        0.097700
     76 H16         -4.8530     0.7620    -1.4850 H          1 87        0.097700
     77 H17         -2.2530     2.9050    -2.9690 H          1 87        0.091400
     78 H18         -3.5380     1.7330    -3.3740 H          1 87        0.091400
     79 H19         -2.8610    -0.5560    -4.0590 H          1 87        0.097700
     80 H20         -0.9250    -1.1330    -5.3530 H          1 87        0.097700
     81 H21          0.8300    -4.0450    -3.7080 H          1 87        0.091400
     82 H22          1.3150    -2.8210    -4.9090 H          1 87        0.091400
     83 H23          3.3190    -3.3070     0.8610 H          1 87        0.091400
     84 H24          4.5110    -1.9820     0.7250 H          1 87        0.091400
     85 H25          1.2330     0.1090     4.9850 H          1 87        0.091400
     86 H26          0.3490    -1.4120     4.6660 H          1 87        0.091400
     87 H27         -4.6530    -0.4390     3.4640 H          1 87        0.091400
     88 H28         -4.9560     1.3120     3.3130 H          1 87        0.091400
     89 H29         -1.7310    -1.7260    -0.2140 H          1 87        0.091400
     90 H30         -1.3330    -0.0910    -0.7240 H          1 87        0.091400
@<TRIPOS>BOND
     1     1     2 1   
     2     1    33 1   
     3     1    61 1   
     4     1    62 1   
     5     2     3 1   
     6     2     6 1   
     7     3     4 1   
     8     3    38 1   
     9     3    63 1   
    10     4     5 1   
    11     4    41 1   
    12     4    64 1   
    13     5     6 1   
    14     5     8 1   
    15     6     7 2   
    16     8     9 1   
    17     8    65 1   
    18     8    66 1   
    19     9    10 1   
    20     9    13 1   
    21    10    11 1   
    22    10    43 1   
    23    10    67 1   
    24    11    12 1   
    25    11    46 1   
    26    11    68 1   
    27    12    13 1   
    28    12    15 1   
    29    13    14 2   
    30    15    16 1   
    31    15    69 1   
    32    15    70 1   
    33    16    17 1   
    34    16    20 1   
    35    17    18 1   
    36    17    48 1   
    37    17    71 1   
    38    18    19 1   
    39    18    51 1   
    40    18    72 1   
    41    19    20 1   
    42    19    22 1   
    43    20    21 2   
    44    22    23 1   
    45    22    73 1   
    46    22    74 1   
    47    23    24 1   
    48    23    27 1   
    49    24    25 1   
    50    24    53 1   
    51    24    75 1   
    52    25    26 1   
    53    25    56 1   
    54    25    76 1   
    55    26    27 1   
    56    26    29 1   
    57    27    28 2   
    58    29    30 1   
    59    29    77 1   
    60    29    78 1   
    61    30    31 1   
    62    30    34 1   
    63    31    32 1   
    64    31    58 1   
    65    31    79 1   
    66    32    33 1   
    67    32    36 1   
    68    32    80 1   
    69    33    34 1   
    70    34    35 2   
    71    36    37 1   
    72    36    59 1   
    73    37    38 1   
    74    37    81 1   
    75    37    82 1   
    76    38    39 1   
    77    39    40 2   
    78    39    41 1   
    79    41    42 1   
    80    42    43 1   
    81    42    83 1   
    82    42    84 1   
    83    43    44 1   
    84    44    45 2   
    85    44    46 1   
    86    46    47 1   
    87    47    48 1   
    88    47    85 1   
    89    47    86 1   
    90    48    49 1   
    91    49    50 2   
    92    49    51 1   
    93    51    52 1   
    94    52    53 1   
    95    52    87 1   
    96    52    88 1   
    97    53    54 1   
    98    54    55 2   
    99    54    56 1   
   100    56    57 1   
   101    57    58 1   
   102    57    89 1   
   103    57    90 1   
   104    58    59 1   
   105    59    60 2   
@<TRIPOS>SUBSTRUCTURE
     1 87          1 TEMP              0 ****  ****    0 ROOT
