@<TRIPOS>MOLECULE
DAV
  178   186     1     0     0
SMALL
bcc


@<TRIPOS>ATOM
      1 H           -9.3220    -0.2740     0.6290 H          0 DAV       0.307500
      2 N           -9.6620     0.1580    -0.1710 N           0 DAV      -0.509900
      3 C           -8.8050     0.6760    -1.0730 C           0 DAV       0.679700
      4 O           -9.2320     1.2170    -2.0750 O           0 DAV      -0.613600
      5 C1          -7.3470     0.5860    -0.8450 C          0 DAV      -0.131600
      6 C2          -6.4620     1.1180    -1.7730 C          0 DAV      -0.026000
      7 H1          -6.8410     1.5970    -2.6640 H          0 DAV       0.174000
      8 C3          -5.0760     1.0390    -1.5590 C          0 DAV      -0.159600
      9 C4          -4.5940     0.4150    -0.4100 C          0 DAV      -0.083000
     10 H2          -3.5290     0.3470    -0.2420 H          0 DAV       0.139000
     11 C5          -5.4790    -0.1200     0.5210 C          0 DAV      -0.159600
     12 C6          -6.8560    -0.0280     0.3020 C          0 DAV      -0.026000
     13 H3          -7.5440    -0.4420     1.0250 H          0 DAV       0.174000
     14 C7          -5.0350    -0.7930     1.7520 C           0 DAV       0.680200
     15 O1          -5.8860    -1.2250     2.5040 O           0 DAV      -0.607600
     16 N1          -3.7360    -0.9610     2.0960 N           0 DAV      -0.570900
     17 H4          -3.0040    -0.6430     1.5450 H          0 DAV       0.316500
     18 C8          -3.5190    -1.6710     3.3860 C          0 DAV       0.126800
     19 H5          -3.8840    -1.0550     4.2080 H          0 DAV       0.069200
     20 H6          -4.0530    -2.6210     3.3750 H          0 DAV       0.069200
     21 C9          -2.0430    -1.9160     3.5540 C          0 DAV      -0.083300
     22 C10         -1.4610    -3.0830     3.0610 C          0 DAV      -0.023750
     23 C11         -2.2470    -4.0870     2.4540 C          0 DAV      -0.125500
     24 H7          -3.3180    -3.9670     2.3770 H          0 DAV       0.149500
     25 C12         -1.6450    -5.2060     1.9690 C          0 DAV      -0.128500
     26 H8          -2.2510    -5.9750     1.5120 H          0 DAV       0.131500
     27 C13         -0.2610    -5.3860     2.0460 C          0 DAV      -0.128500
     28 H9           0.1750    -6.2900     1.6470 H          0 DAV       0.131500
     29 C14          0.5470    -4.4560     2.6100 C          0 DAV      -0.125500
     30 H10          1.6140    -4.6170     2.6490 H          0 DAV       0.149500
     31 C15         -0.0100    -3.2770     3.1450 C          0 DAV      -0.023750
     32 C16          0.7940    -2.3020     3.7330 C          0 DAV      -0.083300
     33 C17          0.1990    -1.1810     4.3130 C          0 DAV      -0.023750
     34 C18          0.9750    -0.2020     4.9740 C          0 DAV      -0.125500
     35 H11          2.0480    -0.3070     5.0330 H          0 DAV       0.149500
     36 C19          0.3600     0.8730     5.5350 C          0 DAV      -0.128500
     37 H12          0.9570     1.6130     6.0470 H          0 DAV       0.131500
     38 C20         -1.0220     1.0450     5.4660 C          0 DAV      -0.128500
     39 H13         -1.4670     1.9140     5.9290 H          0 DAV       0.131500
     40 C21         -1.8220     0.1520     4.8340 C          0 DAV      -0.125500
     41 H14         -2.8890     0.3150     4.7890 H          0 DAV       0.149500
     42 C22         -1.2530    -0.9900     4.2330 C          0 DAV      -0.023750
     43 C23          2.2890    -2.4530     3.7310 C          0 DAV       0.126800
     44 H15          2.6950    -2.0380     4.6540 H          0 DAV       0.069200
     45 H16          2.5450    -3.5110     3.6680 H          0 DAV       0.069200
     46 N2           2.8760    -1.7400     2.5730 N           0 DAV      -0.570900
     47 H17          2.3320    -1.3500     1.8710 H          0 DAV       0.316500
     48 C24          4.2200    -1.6750     2.5660 C           0 DAV       0.680200
     49 O2           4.7860    -2.1700     3.5200 O           0 DAV      -0.607600
     50 C25          5.0800    -1.0750     1.5410 C          0 DAV      -0.159600
     51 C26          6.4640    -1.1290     1.7650 C          0 DAV      -0.026000
     52 H18          6.8450    -1.5950     2.6620 H          0 DAV       0.174000
     53 C27          7.3490    -0.5880     0.8410 C          0 DAV      -0.131600
     54 C28          6.8590     0.0110    -0.3120 C          0 DAV      -0.026000
     55 H19          7.5450     0.4300    -1.0330 H          0 DAV       0.174000
     56 C29          5.4800     0.0740    -0.5460 C          0 DAV      -0.159600
     57 C30          4.5970    -0.4700     0.3830 C          0 DAV      -0.083000
     58 H20          3.5330    -0.4230     0.2050 H          0 DAV       0.139000
     59 C31          5.0360     0.7260    -1.7880 C           0 DAV       0.680200
     60 O3           5.8900     1.1590    -2.5360 O           0 DAV      -0.607600
     61 N3           3.7460     0.8750    -2.1530 N           0 DAV      -0.570900
     62 H21          3.0140     0.5520    -1.6040 H          0 DAV       0.316500
     63 C32          3.5170     1.5630    -3.4450 C          0 DAV       0.126800
     64 H22          4.0560     2.5110    -3.4540 H          0 DAV       0.069200
     65 H23          3.8700     0.9340    -4.2620 H          0 DAV       0.069200
     66 C33          2.0420     1.8200    -3.6040 C          0 DAV      -0.083300
     67 C34          1.2430     0.9180    -4.3070 C          0 DAV      -0.023750
     68 C35          1.8110    -0.2100    -4.9380 C          0 DAV      -0.125500
     69 H24          2.8770    -0.3810    -4.8940 H          0 DAV       0.149500
     70 C36          1.0020    -1.0800    -5.6040 C          0 DAV      -0.128500
     71 H25          1.4400    -1.9390    -6.0920 H          0 DAV       0.131500
     72 C37         -0.3800    -0.8900    -5.6710 C          0 DAV      -0.128500
     73 H26         -0.9840    -1.6070    -6.2070 H          0 DAV       0.131500
     74 C38         -0.9830     0.1690    -5.0790 C          0 DAV      -0.125500
     75 H27         -2.0540     0.2860    -5.1400 H          0 DAV       0.149500
     76 C39         -0.2070     1.1180    -4.3840 C          0 DAV      -0.023750
     77 C40         -0.7950     2.2200    -3.7660 C          0 DAV      -0.083300
     78 C41          0.0160     3.1730    -3.1480 C          0 DAV      -0.023750
     79 C42         -0.5400     4.3350    -2.5670 C          0 DAV      -0.125500
     80 H28         -1.6080     4.4970    -2.5890 H          0 DAV       0.149500
     81 C43          0.2800     5.2480    -1.9790 C          0 DAV      -0.128500
     82 H29         -0.1490     6.1390    -1.5460 H          0 DAV       0.131500
     83 C44          1.6610     5.0600    -1.9220 C          0 DAV      -0.128500
     84 H30          2.2730     5.8120    -1.4460 H          0 DAV       0.131500
     85 C45          2.2550     3.9610    -2.4460 C          0 DAV      -0.125500
     86 H31          3.3260     3.8410    -2.3810 H          0 DAV       0.149500
     87 C46          1.4680     2.9750    -3.0740 C          0 DAV      -0.023750
     88 C47         -2.2890     2.3800    -3.7550 C          0 DAV       0.126800
     89 H32         -2.5390     3.4390    -3.6920 H          0 DAV       0.069200
     90 H33         -2.7040     1.9640    -4.6730 H          0 DAV       0.069200
     91 N4          -2.8680     1.6660    -2.5890 N           0 DAV      -0.570900
     92 H34         -2.3260     1.2600    -1.8950 H          0 DAV       0.316500
     93 C48         -4.2130     1.6350    -2.5830 C           0 DAV       0.680200
     94 O4          -4.7710     2.1570    -3.5290 O           0 DAV      -0.607600
     95 C49          8.8060    -0.6490     1.0850 C           0 DAV       0.679700
     96 O5           9.2320    -1.1730     2.0950 O           0 DAV      -0.613600
     97 N5           9.6620    -0.1230     0.1860 N           0 DAV      -0.509900
     98 H35          9.3220     0.2950    -0.6200 H          0 DAV       0.307500
     99 C50         11.1050    -0.1830     0.4270 C          0 DAV       0.120400
    100 C51         11.8450     0.4800    -0.7360 C          0 DAV       0.122233
    101 H36         11.6090    -0.0440    -1.6630 H          0 DAV       0.043117
    102 H37         11.5330     1.5210    -0.8190 H          0 DAV       0.043117
    103 O6          13.2530     0.4210    -0.5010 O          0 DAV      -0.443100
    104 C52         13.8850     1.0530    -1.6170 C          0 DAV       0.148067
    105 H38         13.6230     0.5220    -2.5310 H          0 DAV       0.030867
    106 H39         13.5470     2.0870    -1.6870 H          0 DAV       0.030867
    107 C53         15.4030     1.0240    -1.4270 C          0 DAV      -0.190400
    108 H40         15.6650     1.5550    -0.5120 H          0 DAV       0.034700
    109 H41         15.7400    -0.0100    -1.3560 H          0 DAV       0.034700
    110 C54         16.0690     1.6900    -2.6030 C           0 DAV       0.909933
    111 O7          15.3930     2.1460    -3.5090 O           0 DAV      -0.865467
    112 O8          17.2850     1.7730    -2.6480 O           0 DAV      -0.865467
    113 C55         11.4370     0.5520     1.7270 C          0 DAV       0.122233
    114 H42         10.9820     0.0280     2.5680 H          0 DAV       0.043117
    115 H43         12.5180     0.5840     1.8610 H          0 DAV       0.043117
    116 O9          10.9250     1.8850     1.6640 O          0 DAV      -0.443100
    117 C56         11.2640     2.5160     2.9000 C          0 DAV       0.148067
    118 H44         10.8110     1.9670     3.7260 H          0 DAV       0.030867
    119 H45         12.3470     2.5240     3.0190 H          0 DAV       0.030867
    120 C57         10.7420     3.9550     2.8980 C          0 DAV      -0.190400
    121 H46         11.1940     4.5040     2.0730 H          0 DAV       0.034700
    122 H47          9.6580     3.9480     2.7790 H          0 DAV       0.034700
    123 C58         11.0990     4.6210     4.2020 C           0 DAV       0.909933
    124 O10         11.7150     4.0030     5.0540 O           0 DAV      -0.865467
    125 O11         10.7730     5.7780     4.4050 O           0 DAV      -0.865467
    126 C59         11.5430    -1.6450     0.5430 C          0 DAV       0.122233
    127 H48         12.6170    -1.6900     0.7220 H          0 DAV       0.043117
    128 H49         11.0160    -2.1170     1.3720 H          0 DAV       0.043117
    129 O12         11.2330    -2.3320    -0.6720 O          0 DAV      -0.443100
    130 C60         11.6630    -3.6840    -0.5020 C          0 DAV       0.148067
    131 H50         12.7360    -3.7030    -0.3090 H          0 DAV       0.030867
    132 H51         11.1350    -4.1310     0.3400 H          0 DAV       0.030867
    133 C61         11.3600    -4.4790    -1.7740 C          0 DAV      -0.190400
    134 H52         10.2870    -4.4600    -1.9670 H          0 DAV       0.034700
    135 H53         11.8880    -4.0330    -2.6160 H          0 DAV       0.034700
    136 C62         11.8130    -5.9050    -1.5950 C           0 DAV       0.909933
    137 O13         12.3310    -6.2530    -0.5480 O           0 DAV      -0.865467
    138 O14         11.6620    -6.7100    -2.4980 O           0 DAV      -0.865467
    139 C63        -11.1070     0.2420    -0.4000 C          0 DAV       0.120400
    140 C64        -11.8470    -0.4230     0.7630 C          0 DAV       0.122233
    141 H54        -11.5500    -1.4690     0.8320 H          0 DAV       0.043117
    142 H55        -11.5960     0.0880     1.6930 H          0 DAV       0.043117
    143 O15        -13.2560    -0.3410     0.5390 O          0 DAV      -0.443100
    144 C65        -13.8880    -0.9750     1.6530 C          0 DAV       0.148067
    145 H56        -13.5650    -2.0150     1.7100 H          0 DAV       0.030867
    146 H57        -13.6110    -0.4580     2.5710 H          0 DAV       0.030867
    147 C66        -15.4070    -0.9220     1.4760 C          0 DAV      -0.190400
    148 H58        -15.7300     0.1170     1.4180 H          0 DAV       0.034700
    149 H59        -15.6840    -1.4400     0.5570 H          0 DAV       0.034700
    150 C67        -16.0730    -1.5910     2.6500 C           0 DAV       0.909933
    151 O16        -15.3970    -2.0660     3.5460 O           0 DAV      -0.865467
    152 O17        -17.2900    -1.6570     2.7040 O           0 DAV      -0.865467
    153 C68        -11.5230     1.7110    -0.4960 C          0 DAV       0.122233
    154 H60        -11.0650     2.1610    -1.3770 H          0 DAV       0.043117
    155 H61        -12.6080     1.7760    -0.5780 H          0 DAV       0.043117
    156 O18        -11.0910     2.4060     0.6750 O          0 DAV      -0.443100
    157 C69        -11.5070     3.7650     0.5250 C          0 DAV       0.148067
    158 H62        -11.0490     4.1890    -0.3690 H          0 DAV       0.030867
    159 H63        -12.5920     3.8040     0.4310 H          0 DAV       0.030867
    160 C70        -11.0730     4.5700     1.7520 C          0 DAV      -0.190400
    161 H64        -11.5310     4.1460     2.6450 H          0 DAV       0.034700
    162 H65         -9.9870     4.5310     1.8460 H          0 DAV       0.034700
    163 C71        -11.5120     6.0030     1.5940 C           0 DAV       0.909933
    164 O19        -12.1160     6.3480     0.5930 O           0 DAV      -0.865467
    165 O20        -11.2630     6.8160     2.4670 O           0 DAV      -0.865467
    166 C72        -11.4590    -0.4750    -1.7050 C          0 DAV       0.122233
    167 H66        -12.5330    -0.4130    -1.8750 H          0 DAV       0.043117
    168 H67        -10.9310    -0.0020    -2.5330 H          0 DAV       0.043117
    169 O21        -11.0690    -1.8470    -1.6140 O          0 DAV      -0.443100
    170 C73        -11.4220    -2.4590    -2.8570 C          0 DAV       0.148067
    171 H68        -12.4980    -2.3710    -3.0120 H          0 DAV       0.030867
    172 H69        -10.8960    -1.9600    -3.6700 H          0 DAV       0.030867
    173 C74        -11.0310    -3.9380    -2.8260 C          0 DAV      -0.190400
    174 H70         -9.9550    -4.0260    -2.6710 H          0 DAV       0.034700
    175 H71        -11.5570    -4.4370    -2.0130 H          0 DAV       0.034700
    176 C75        -11.4030    -4.5830    -4.1360 C           0 DAV       0.909933
    177 O22        -11.9320    -3.9220    -5.0130 O           0 DAV      -0.865467
    178 O23        -11.1740    -5.7670    -4.3190 O           0 DAV      -0.865467
@<TRIPOS>BOND
     1     1     2 1   
     2     2     3 1   
     3     2   139 1   
     4     3     4 2   
     5     3     5 1   
     6     5     6 ar  
     7     5    12 ar  
     8     6     7 1   
     9     6     8 ar  
    10     8     9 ar  
    11     8    93 1   
    12     9    10 1   
    13     9    11 ar  
    14    11    12 ar  
    15    11    14 1   
    16    12    13 1   
    17    14    15 2   
    18    14    16 1   
    19    16    17 1   
    20    16    18 1   
    21    18    19 1   
    22    18    20 1   
    23    18    21 1   
    24    21    22 ar  
    25    21    42 ar  
    26    22    23 ar  
    27    22    31 ar  
    28    23    24 1   
    29    23    25 ar  
    30    25    26 1   
    31    25    27 ar  
    32    27    28 1   
    33    27    29 ar  
    34    29    30 1   
    35    29    31 ar  
    36    31    32 ar  
    37    32    33 ar  
    38    32    43 1   
    39    33    34 ar  
    40    33    42 ar  
    41    34    35 1   
    42    34    36 ar  
    43    36    37 1   
    44    36    38 ar  
    45    38    39 1   
    46    38    40 ar  
    47    40    41 1   
    48    40    42 ar  
    49    43    44 1   
    50    43    45 1   
    51    43    46 1   
    52    46    47 1   
    53    46    48 1   
    54    48    49 2   
    55    48    50 1   
    56    50    51 ar  
    57    50    57 ar  
    58    51    52 1   
    59    51    53 ar  
    60    53    54 ar  
    61    53    95 1   
    62    54    55 1   
    63    54    56 ar  
    64    56    57 ar  
    65    56    59 1   
    66    57    58 1   
    67    59    60 2   
    68    59    61 1   
    69    61    62 1   
    70    61    63 1   
    71    63    64 1   
    72    63    65 1   
    73    63    66 1   
    74    66    67 ar  
    75    66    87 ar  
    76    67    68 ar  
    77    67    76 ar  
    78    68    69 1   
    79    68    70 ar  
    80    70    71 1   
    81    70    72 ar  
    82    72    73 1   
    83    72    74 ar  
    84    74    75 1   
    85    74    76 ar  
    86    76    77 ar  
    87    77    78 ar  
    88    77    88 1   
    89    78    79 ar  
    90    78    87 ar  
    91    79    80 1   
    92    79    81 ar  
    93    81    82 1   
    94    81    83 ar  
    95    83    84 1   
    96    83    85 ar  
    97    85    86 1   
    98    85    87 ar  
    99    88    89 1   
   100    88    90 1   
   101    88    91 1   
   102    91    92 1   
   103    91    93 1   
   104    93    94 2   
   105    95    96 2   
   106    95    97 1   
   107    97    98 1   
   108    97    99 1   
   109    99   100 1   
   110    99   113 1   
   111    99   126 1   
   112   100   101 1   
   113   100   102 1   
   114   100   103 1   
   115   103   104 1   
   116   104   105 1   
   117   104   106 1   
   118   104   107 1   
   119   107   108 1   
   120   107   109 1   
   121   107   110 1   
   122   110   111 1   
   123   110   112 1   
   124   113   114 1   
   125   113   115 1   
   126   113   116 1   
   127   116   117 1   
   128   117   118 1   
   129   117   119 1   
   130   117   120 1   
   131   120   121 1   
   132   120   122 1   
   133   120   123 1   
   134   123   124 1   
   135   123   125 1   
   136   126   127 1   
   137   126   128 1   
   138   126   129 1   
   139   129   130 1   
   140   130   131 1   
   141   130   132 1   
   142   130   133 1   
   143   133   134 1   
   144   133   135 1   
   145   133   136 1   
   146   136   137 1   
   147   136   138 1   
   148   139   140 1   
   149   139   153 1   
   150   139   166 1   
   151   140   141 1   
   152   140   142 1   
   153   140   143 1   
   154   143   144 1   
   155   144   145 1   
   156   144   146 1   
   157   144   147 1   
   158   147   148 1   
   159   147   149 1   
   160   147   150 1   
   161   150   151 1   
   162   150   152 1   
   163   153   154 1   
   164   153   155 1   
   165   153   156 1   
   166   156   157 1   
   167   157   158 1   
   168   157   159 1   
   169   157   160 1   
   170   160   161 1   
   171   160   162 1   
   172   160   163 1   
   173   163   164 1   
   174   163   165 1   
   175   166   167 1   
   176   166   168 1   
   177   166   169 1   
   178   169   170 1   
   179   170   171 1   
   180   170   172 1   
   181   170   173 1   
   182   173   174 1   
   183   173   175 1   
   184   173   176 1   
   185   176   177 1   
   186   176   178 1   
@<TRIPOS>SUBSTRUCTURE
     1 DAV         1 TEMP              0 ****  ****    0 ROOT
