@<TRIPOS>MOLECULE
27
  106   111     1     0     0
SMALL
bcc


@<TRIPOS>ATOM
      1 O1           0.9590    -0.2270    -1.5190 O           1 27       -0.610100
      2 C1           1.7950    -0.9590    -0.9940 C           1 27        0.668700
      3 N1           1.8260    -2.2960    -1.3130 N           1 27       -0.564900
      4 C2           2.1900    -3.3780    -0.4100 C          1 27        0.090500
      5 C3           1.9900    -4.7330    -1.0730 C          1 27       -0.126400
      6 C4           2.3120    -5.8760    -0.1170 C          1 27        0.130900
      7 O2           2.0270    -7.1290    -0.7370 O          1 27       -0.424100
      8 C5           0.6720    -7.5560    -0.5650 C          1 27        0.121900
      9 C6           0.5380    -8.3530     0.7290 C          1 27       -0.093900
     10 C7          -0.8850    -8.8490     0.9940 C          1 27       -0.095900
     11 C8          -1.9020    -7.7390     1.2590 C          1 27        0.124900
     12 O3          -1.4280    -6.9160     2.3230 O          1 27       -0.424600
     13 C9          -2.4020    -6.0040     2.8230 C          1 27        0.126900
     14 C10         -2.6360    -4.8170     1.8950 C          1 27       -0.118900
     15 C11         -1.3300    -4.1010     1.5450 C          1 27        0.084000
     16 N2          -1.5810    -2.8780     0.7820 N           1 27       -0.489900
     17 C12         -1.7170    -3.0080    -0.6010 C           1 27        0.717350
     18 O4          -1.6120    -4.0770    -1.2000 O           1 27       -0.600000
     19 C13         -2.0000    -1.7450    -1.3310 C          1 27       -0.114850
     20 C14         -2.1160    -1.7420    -2.6730 C          1 27       -0.059000
     21 C15         -2.3620    -0.5130    -3.4120 C          1 27       -0.059000
     22 C16         -2.4980     0.6710    -2.7840 C          1 27       -0.114850
     23 C17         -2.7290     1.9170    -3.5660 C           1 27        0.717350
     24 O5          -2.7810     1.8910    -4.7930 O           1 27       -0.600000
     25 N3          -2.8880     3.0760    -2.8000 N           1 27       -0.489900
     26 C18         -3.1180     4.3250    -3.5270 C          1 27        0.084000
     27 C19         -1.8230     5.0240    -3.9500 C          1 27       -0.118900
     28 C20         -1.0300     5.5760    -2.7710 C          1 27        0.126900
     29 O6           0.0780     6.3230    -3.2780 O          1 27       -0.424600
     30 C21          1.0130     6.6940    -2.2610 C          1 27        0.124900
     31 C22          0.4740     7.8040    -1.3610 C          1 27       -0.095900
     32 C23          1.5100     8.3490    -0.3740 C          1 27       -0.093900
     33 C24          2.1090     7.2960     0.5550 C          1 27        0.121900
     34 O7           1.0590     6.5820     1.2040 O          1 27       -0.424100
     35 C25          1.5680     5.5090     2.0010 C          1 27        0.130900
     36 C26          0.3850     4.7950     2.6470 C          1 27       -0.126400
     37 C27          0.8030     3.6560     3.5720 C          1 27        0.090500
     38 N4           1.3440     2.5230     2.8460 N           1 27       -0.564900
     39 C28          2.6960     2.3870     2.6090 C           1 27        0.668700
     40 O8           3.5340     3.1610     3.0580 O           1 27       -0.610100
     41 C29          3.1250     1.2470     1.7500 C          1 27       -0.146600
     42 C30          4.4630     0.8350     1.8150 C          1 27       -0.067000
     43 C31          4.9380    -0.1680     0.9670 C          1 27       -0.148000
     44 C32          4.0780    -0.7700     0.0500 C          1 27       -0.067000
     45 C33          2.7330    -0.3900     0.0010 C          1 27       -0.146600
     46 C34          2.2620     0.6360     0.8330 C          1 27       -0.060000
     47 C35         -2.8410     3.1480    -1.4020 C           1 27        0.717350
     48 O9          -3.0150     4.1860    -0.7670 O           1 27       -0.600000
     49 C36         -2.5570     1.9080    -0.6480 C          1 27       -0.114850
     50 C37         -2.4470     1.9390     0.7490 C          1 27       -0.059000
     51 C38         -2.1810     0.7640     1.4580 C          1 27       -0.059000
     52 C39         -2.0260    -0.4480     0.7720 C          1 27       -0.114850
     53 C40         -1.7370    -1.6940     1.5140 C           1 27        0.717350
     54 O10         -1.6460    -1.6340     2.7390 O           1 27       -0.600000
     55 C41         -2.1440    -0.4800    -0.6120 C          1 27       -0.007500
     56 C42         -2.4010     0.7070    -1.3260 C          1 27       -0.007500
     57 H1           1.0980    -2.5140    -1.9870 H          1 27        0.313000
     58 H2           1.5630    -3.2840     0.4840 H          1 27        0.055200
     59 H3           3.2300    -3.2680    -0.0990 H          1 27        0.055200
     60 H4           2.6200    -4.8170    -1.9680 H          1 27        0.062200
     61 H5           0.9620    -4.8240    -1.4400 H          1 27        0.062200
     62 H6           3.3820    -5.8660     0.1140 H          1 27        0.040200
     63 H7           1.7720    -5.7740     0.8320 H          1 27        0.040200
     64 H8           0.4290    -8.2020    -1.4160 H          1 27        0.042950
     65 H9          -0.0110    -6.7010    -0.5980 H          1 27        0.042950
     66 H10          0.8990    -7.7650     1.5800 H          1 27        0.053450
     67 H11          1.2110    -9.2190     0.6750 H          1 27        0.053450
     68 H12         -1.2290    -9.4680     0.1570 H          1 27        0.055450
     69 H13         -0.8460    -9.4980     1.8780 H          1 27        0.055450
     70 H14         -2.8600    -8.1940     1.5370 H          1 27        0.038950
     71 H15         -2.0540    -7.1340     0.3610 H          1 27        0.038950
     72 H16         -2.0270    -5.6380     3.7850 H          1 27        0.044700
     73 H17         -3.3420    -6.5300     3.0300 H          1 27        0.044700
     74 H18         -3.3330    -4.1210     2.3780 H          1 27        0.064200
     75 H19         -3.1230    -5.1530     0.9720 H          1 27        0.064200
     76 H20         -0.6850    -4.7620     0.9550 H          1 27        0.080450
     77 H21         -0.7790    -3.8550     2.4600 H          1 27        0.080450
     78 H22         -2.0120    -2.6540    -3.2560 H          1 27        0.174250
     79 H23         -2.4160    -0.5870    -4.4960 H          1 27        0.174250
     80 H24         -3.7260     5.0050    -2.9190 H          1 27        0.080450
     81 H25         -3.7070     4.1070    -4.4260 H          1 27        0.080450
     82 H26         -2.0710     5.8520    -4.6270 H          1 27        0.064200
     83 H27         -1.1870     4.3450    -4.5310 H          1 27        0.064200
     84 H28         -0.6590     4.7560    -2.1470 H          1 27        0.044700
     85 H29         -1.6670     6.2330    -2.1710 H          1 27        0.044700
     86 H30          1.3000     5.8040    -1.6900 H          1 27        0.038950
     87 H31          1.9110     7.0500    -2.7780 H          1 27        0.038950
     88 H32          0.1070     8.6270    -1.9880 H          1 27        0.055450
     89 H33         -0.4010     7.4480    -0.8070 H          1 27        0.055450
     90 H34          1.0130     9.1140     0.2360 H          1 27        0.053450
     91 H35          2.3180     8.8500    -0.9200 H          1 27        0.053450
     92 H36          2.7340     7.7870     1.3100 H          1 27        0.042950
     93 H37          2.7390     6.6030    -0.0130 H          1 27        0.042950
     94 H38          2.1240     4.8260     1.3530 H          1 27        0.040200
     95 H39          2.2390     5.9120     2.7680 H          1 27        0.040200
     96 H40         -0.1970     5.5280     3.2200 H          1 27        0.062200
     97 H41         -0.2880     4.4250     1.8640 H          1 27        0.062200
     98 H42          1.5290     4.0050     4.3140 H          1 27        0.055200
     99 H43         -0.0750     3.2860     4.1120 H          1 27        0.055200
    100 H44          0.6970     1.8060     2.5500 H          1 27        0.313000
    101 H45          5.1490     1.3170     2.5110 H          1 27        0.154000
    102 H46          5.9860    -0.4570     1.0060 H          1 27        0.145000
    103 H47          4.4740    -1.5050    -0.6460 H          1 27        0.154000
    104 H48          1.2380     0.9760     0.7120 H          1 27        0.153000
    105 H49         -2.5730     2.8770     1.2890 H          1 27        0.174250
    106 H50         -2.1050     0.7980     2.5440 H          1 27        0.174250
@<TRIPOS>BOND
     1     1     2 2   
     2     2     3 1   
     3     2    45 1   
     4     3     4 1   
     5     3    57 1   
     6     4     5 1   
     7     4    58 1   
     8     4    59 1   
     9     5     6 1   
    10     5    60 1   
    11     5    61 1   
    12     6     7 1   
    13     6    62 1   
    14     6    63 1   
    15     7     8 1   
    16     8     9 1   
    17     8    64 1   
    18     8    65 1   
    19     9    10 1   
    20     9    66 1   
    21     9    67 1   
    22    10    11 1   
    23    10    68 1   
    24    10    69 1   
    25    11    12 1   
    26    11    70 1   
    27    11    71 1   
    28    12    13 1   
    29    13    14 1   
    30    13    72 1   
    31    13    73 1   
    32    14    15 1   
    33    14    74 1   
    34    14    75 1   
    35    15    16 1   
    36    15    76 1   
    37    15    77 1   
    38    16    17 1   
    39    16    53 1   
    40    17    18 2   
    41    17    19 1   
    42    19    20 ar  
    43    19    55 ar  
    44    20    21 ar  
    45    20    78 1   
    46    21    22 ar  
    47    21    79 1   
    48    22    23 1   
    49    22    56 ar  
    50    23    24 2   
    51    23    25 1   
    52    25    26 1   
    53    25    47 1   
    54    26    27 1   
    55    26    80 1   
    56    26    81 1   
    57    27    28 1   
    58    27    82 1   
    59    27    83 1   
    60    28    29 1   
    61    28    84 1   
    62    28    85 1   
    63    29    30 1   
    64    30    31 1   
    65    30    86 1   
    66    30    87 1   
    67    31    32 1   
    68    31    88 1   
    69    31    89 1   
    70    32    33 1   
    71    32    90 1   
    72    32    91 1   
    73    33    34 1   
    74    33    92 1   
    75    33    93 1   
    76    34    35 1   
    77    35    36 1   
    78    35    94 1   
    79    35    95 1   
    80    36    37 1   
    81    36    96 1   
    82    36    97 1   
    83    37    38 1   
    84    37    98 1   
    85    37    99 1   
    86    38    39 1   
    87    38   100 1   
    88    39    40 2   
    89    39    41 1   
    90    41    42 ar  
    91    41    46 ar  
    92    42    43 ar  
    93    42   101 1   
    94    43    44 ar  
    95    43   102 1   
    96    44    45 ar  
    97    44   103 1   
    98    45    46 ar  
    99    46   104 1   
   100    47    48 2   
   101    47    49 1   
   102    49    50 ar  
   103    49    56 ar  
   104    50    51 ar  
   105    50   105 1   
   106    51    52 ar  
   107    51   106 1   
   108    52    53 1   
   109    52    55 ar  
   110    53    54 2   
   111    55    56 ar  
@<TRIPOS>SUBSTRUCTURE
     1 27          1 TEMP              0 ****  ****    0 ROOT
