@<TRIPOS>MOLECULE
94
   78    80     1     0     0
SMALL
bcc


@<TRIPOS>ATOM
      1 C            8.1600     0.7100     1.2710 C          0 94       -0.088767
      2 C1           7.6370    -0.0140     0.0300 C          0 94       -0.009700
      3 C2           8.1390     0.7000    -1.2270 C          0 94       -0.088767
      4 C3           8.1400    -1.4590     0.0310 C          0 94       -0.088767
      5 C4           6.1300    -0.0070     0.0430 C          0 94       -0.077300
      6 C5           5.4470     1.1940     0.0440 C          0 94       -0.064500
      7 C6           4.0520     1.2060     0.0570 C          0 94       -0.150100
      8 C7           3.3460     0.0050     0.0710 C          0 94       -0.065000
      9 C8           4.0430    -1.2030     0.0650 C          0 94       -0.150100
     10 C9           5.4370    -1.2030     0.0480 C          0 94       -0.064500
     11 C10          3.2900    -2.4750     0.0640 C           0 94        0.669200
     12 O            3.8690    -3.5440     0.0820 O           0 94       -0.624600
     13 N            1.9230    -2.4180     0.0440 N           0 94       -0.561400
     14 C11          1.2380    -3.7320     0.0550 C          0 94        0.089500
     15 C12         -0.0080    -3.6310    -0.8280 C          0 94       -0.134400
     16 C13         -1.2620    -3.7530     0.0410 C          0 94        0.089500
     17 N1          -1.9450    -2.4380     0.0630 N           0 94       -0.561400
     18 C14         -3.3120    -2.4880     0.0470 C           0 94        0.669200
     19 O1          -3.9010    -3.5510     0.0320 O           0 94       -0.624600
     20 C15         -4.0530    -1.2050     0.0500 C          0 94       -0.150100
     21 C16         -5.4470    -1.1950     0.0390 C          0 94       -0.064500
     22 C17         -6.1300     0.0060     0.0410 C          0 94       -0.077300
     23 C18         -5.4380     1.2020     0.0520 C          0 94       -0.064500
     24 C19         -4.0440     1.2040     0.0590 C          0 94       -0.150100
     25 C20         -3.3470    -0.0040     0.0610 C          0 94       -0.065000
     26 C21         -3.2910     2.4780     0.0620 C           0 94        0.669200
     27 O2          -3.8700     3.5460     0.0840 O           0 94       -0.624600
     28 N2          -1.9240     2.4180     0.0390 N           0 94       -0.561400
     29 C22         -1.2380     3.7310     0.0490 C          0 94        0.089500
     30 C23          0.0120     3.6320    -0.8270 C          0 94       -0.134400
     31 C24          1.2630     3.7530     0.0460 C          0 94        0.089500
     32 N3           1.9450     2.4390     0.0720 N           0 94       -0.561400
     33 C25          3.3140     2.4890     0.0500 C           0 94        0.669200
     34 O3           3.9020     3.5530     0.0250 O           0 94       -0.624600
     35 C26         -7.6370     0.0120     0.0320 C          0 94       -0.009700
     36 C27         -8.1580    -0.7150     1.2740 C          0 94       -0.088767
     37 C28         -8.1420     1.4560     0.0370 C          0 94       -0.088767
     38 C29         -8.1420    -0.7010    -1.2250 C          0 94       -0.088767
     39 H            7.8020     1.7390     1.2700 H          0 94        0.039922
     40 H1           7.8030     0.2020     2.1670 H          0 94        0.039922
     41 H2           9.2500     0.7060     1.2620 H          0 94        0.039922
     42 H3           9.2290     0.6950    -1.2360 H          0 94        0.039922
     43 H4           7.7650     0.1840    -2.1120 H          0 94        0.039922
     44 H5           7.7800     1.7290    -1.2280 H          0 94        0.039922
     45 H6           7.7830    -1.9670     0.9270 H          0 94        0.039922
     46 H7           7.7670    -1.9750    -0.8530 H          0 94        0.039922
     47 H8           9.2300    -1.4630     0.0220 H          0 94        0.039922
     48 H9           5.9950     2.1250     0.0350 H          0 94        0.155500
     49 H10          2.2660     0.0090     0.0870 H          0 94        0.149000
     50 H11          5.9760    -2.1390     0.0460 H          0 94        0.155500
     51 H12          1.4380    -1.5780     0.0240 H          0 94        0.325500
     52 H13          1.9060    -4.4980    -0.3390 H          0 94        0.062450
     53 H14          0.9470    -3.9860     1.0740 H          0 94        0.062450
     54 H15         -0.0140    -2.6680    -1.3400 H          0 94        0.058200
     55 H16          0.0020    -4.4340    -1.5650 H          0 94        0.058200
     56 H17         -1.9280    -4.5060    -0.3790 H          0 94        0.062450
     57 H18         -0.9800    -4.0370     1.0550 H          0 94        0.062450
     58 H19         -1.4560    -1.6010     0.0860 H          0 94        0.325500
     59 H20         -5.9930    -2.1260     0.0290 H          0 94        0.155500
     60 H21         -5.9780     2.1380     0.0550 H          0 94        0.155500
     61 H22         -2.2670    -0.0080     0.0720 H          0 94        0.149000
     62 H23         -1.4390     1.5780     0.0170 H          0 94        0.325500
     63 H24         -1.9050     4.4960    -0.3490 H          0 94        0.062450
     64 H25         -0.9500     3.9860     1.0690 H          0 94        0.062450
     65 H26          0.0190     2.6710    -1.3410 H          0 94        0.058200
     66 H27          0.0040     4.4360    -1.5630 H          0 94        0.058200
     67 H28          1.9310     4.5050    -0.3740 H          0 94        0.062450
     68 H29          0.9770     4.0380     1.0580 H          0 94        0.062450
     69 H30          1.4570     1.6010     0.1010 H          0 94        0.325500
     70 H31         -7.7980    -0.2070     2.1690 H          0 94        0.039922
     71 H32         -9.2480    -0.7110     1.2670 H          0 94        0.039922
     72 H33         -7.7980    -1.7440     1.2700 H          0 94        0.039922
     73 H34         -7.7710     1.9730    -0.8480 H          0 94        0.039922
     74 H35         -9.2320     1.4600     0.0300 H          0 94        0.039922
     75 H36         -7.7820     1.9630     0.9320 H          0 94        0.039922
     76 H37         -7.7820    -1.7300    -1.2280 H          0 94        0.039922
     77 H38         -9.2320    -0.6970    -1.2310 H          0 94        0.039922
     78 H39         -7.7710    -0.1830    -2.1090 H          0 94        0.039922
@<TRIPOS>BOND
     1     1     2 1   
     2     1    39 1   
     3     1    40 1   
     4     1    41 1   
     5     2     3 1   
     6     2     4 1   
     7     2     5 1   
     8     3    42 1   
     9     3    43 1   
    10     3    44 1   
    11     4    45 1   
    12     4    46 1   
    13     4    47 1   
    14     5     6 ar  
    15     5    10 ar  
    16     6     7 ar  
    17     6    48 1   
    18     7     8 ar  
    19     7    33 1   
    20     8     9 ar  
    21     8    49 1   
    22     9    10 ar  
    23     9    11 1   
    24    10    50 1   
    25    11    12 2   
    26    11    13 1   
    27    13    14 1   
    28    13    51 1   
    29    14    15 1   
    30    14    52 1   
    31    14    53 1   
    32    15    16 1   
    33    15    54 1   
    34    15    55 1   
    35    16    17 1   
    36    16    56 1   
    37    16    57 1   
    38    17    18 1   
    39    17    58 1   
    40    18    19 2   
    41    18    20 1   
    42    20    21 ar  
    43    20    25 ar  
    44    21    22 ar  
    45    21    59 1   
    46    22    23 ar  
    47    22    35 1   
    48    23    24 ar  
    49    23    60 1   
    50    24    25 ar  
    51    24    26 1   
    52    25    61 1   
    53    26    27 2   
    54    26    28 1   
    55    28    29 1   
    56    28    62 1   
    57    29    30 1   
    58    29    63 1   
    59    29    64 1   
    60    30    31 1   
    61    30    65 1   
    62    30    66 1   
    63    31    32 1   
    64    31    67 1   
    65    31    68 1   
    66    32    33 1   
    67    32    69 1   
    68    33    34 2   
    69    35    36 1   
    70    35    37 1   
    71    35    38 1   
    72    36    70 1   
    73    36    71 1   
    74    36    72 1   
    75    37    73 1   
    76    37    74 1   
    77    37    75 1   
    78    38    76 1   
    79    38    77 1   
    80    38    78 1   
@<TRIPOS>SUBSTRUCTURE
     1 94          1 TEMP              0 ****  ****    0 ROOT
