@<TRIPOS>MOLECULE
URE
  124   129     1     0     0
SMALL
bcc


@<TRIPOS>ATOM
      1 O            0.8670     2.4730     5.4540 O           0 URE      -0.844800
      2 C            1.9900     2.5770     4.9910 C           0 URE       0.908600
      3 O1           2.5710     3.6480     5.0370 O           0 URE      -0.844800
      4 C1           2.6610     1.3820     4.3650 C          0 URE      -0.015300
      5 C2           2.3250     1.3320     2.8700 C          0 URE       0.014200
      6 S            0.8070     0.3650     2.6360 S          0 URE      -0.227600
      7 S1          -0.5670     1.7350     3.3090 S          0 URE      -0.227600
      8 C3          -1.8690     0.6280     3.9100 C          0 URE       0.014200
      9 C4          -2.8490     1.4430     4.7660 C          0 URE      -0.015300
     10 N           -4.1560     1.4700     4.1200 N           0 URE      -0.513900
     11 C5          -4.9570     0.3820     4.1460 C           0 URE       0.670200
     12 O2          -4.9470    -0.3750     5.0970 O           0 URE      -0.651100
     13 C6          -5.8430     0.1340     2.9950 C          0 URE      -0.147600
     14 C7          -6.1840     1.1750     2.1350 C          0 URE      -0.050500
     15 C8          -6.9740     0.9230     1.0130 C          0 URE      -0.159850
     16 C9          -7.4460    -0.3670     0.7800 C          0 URE      -0.026500
     17 C10         -7.0170    -1.4160     1.5850 C          0 URE      -0.159850
     18 C11         -6.2870    -1.1610     2.7430 C          0 URE      -0.050500
     19 C12         -7.1070    -2.8040     1.1000 C           0 URE       0.671450
     20 O3          -7.2070    -3.7240     1.8870 O           0 URE      -0.644850
     21 N1          -7.0770    -3.0410    -0.2180 N           0 URE      -0.532650
     22 C13         -6.1950    -4.0780    -0.7610 C          0 URE      -0.004800
     23 C14         -4.9410    -3.3930    -1.3080 C          0 URE      -0.014800
     24 S2          -3.6620    -4.6150    -1.6810 S          0 URE      -0.139600
     25 S3          -2.6520    -3.5990    -3.1560 S          0 URE      -0.293150
     26 C15         -1.1140    -4.4550    -3.1280 C          0 URE      -0.008100
     27 C16          0.0740    -3.7380    -3.0630 C          0 URE      -0.062000
     28 C17          1.2930    -4.4060    -3.0480 C          0 URE      -0.008100
     29 S4           2.7860    -3.4820    -2.9830 S          0 URE      -0.293150
     30 S5           3.8030    -4.5270    -1.5280 S          0 URE      -0.139600
     31 C18          5.1080    -3.3290    -1.1500 C          0 URE      -0.014800
     32 C19          6.3410    -4.0490    -0.6040 C          0 URE      -0.004800
     33 N2           7.2100    -3.0690     0.0410 N           0 URE      -0.532650
     34 C20          7.0930    -2.7810     1.3430 C           0 URE       0.671450
     35 O4           7.2160    -3.6660     2.1670 O           0 URE      -0.644850
     36 C21          6.8170    -1.4110     1.7870 C          0 URE      -0.159850
     37 C22          6.1640    -1.1560     2.9840 C          0 URE      -0.050500
     38 C23          5.7820     0.1360     3.3320 C          0 URE      -0.147600
     39 C24          6.1820     1.2010     2.5190 C          0 URE      -0.050500
     40 C25          6.8630     0.9490     1.3280 C          0 URE      -0.159850
     41 C26          7.2240    -0.3470     0.9740 C          0 URE      -0.026500
     42 C27          7.0700     2.0640     0.3850 C           0 URE       0.671450
     43 O5           7.8630     1.9490    -0.5290 O           0 URE      -0.644850
     44 N3           6.3790     3.2060     0.5370 N           0 URE      -0.532650
     45 C28          6.0700     4.0150    -0.6460 C          0 URE      -0.004800
     46 C29          5.2260     3.1820    -1.6220 C          0 URE      -0.014800
     47 S6           3.6120     3.9660    -1.8600 S          0 URE      -0.139600
     48 S7           2.7570     2.6550    -3.1730 S          0 URE      -0.293150
     49 C30          1.3090     3.5450    -3.6530 C          0 URE      -0.008100
     50 C31          0.2700     3.7010    -2.7470 C          0 URE      -0.062000
     51 C32         -0.8690     4.4130    -3.1010 C          0 URE      -0.008100
     52 S8          -2.1530     4.6160    -1.9190 S          0 URE      -0.293150
     53 S9          -3.6170     3.4430    -2.7700 S          0 URE      -0.139600
     54 C33         -4.4700     2.8730    -1.2740 C          0 URE      -0.014800
     55 C34         -5.8010     3.6210    -1.1330 C          0 URE      -0.004800
     56 N4          -6.4860     3.1240     0.0570 N           0 URE      -0.532650
     57 C35         -7.1820     1.9830     0.0160 C           0 URE       0.671450
     58 O6          -8.0050     1.8200    -0.8630 O           0 URE      -0.644850
     59 C36         -5.5400     5.0980    -0.9880 C           0 URE       0.899600
     60 O7          -5.4830     5.8070    -1.9780 O           0 URE      -0.806550
     61 O8          -5.3860     5.5840     0.1200 O           0 URE      -0.806550
     62 C37         -0.9790     4.9640    -4.3700 C          0 URE      -0.051250
     63 C38          0.0560     4.7880    -5.2940 C          0 URE      -0.166600
     64 C39          1.2010     4.0730    -4.9330 C          0 URE      -0.051250
     65 C40         -0.0620     5.3550    -6.6510 C           0 URE       0.909700
     66 O9          -1.0640     5.9810    -6.9680 O           0 URE      -0.865550
     67 O10          0.8430     5.2010    -7.4600 O           0 URE      -0.865550
     68 C41          5.2970     5.2400    -0.2300 C           0 URE       0.899600
     69 O11          5.0280     5.4210     0.9450 O           0 URE      -0.806550
     70 O12          4.9400     6.0490    -1.0690 O           0 URE      -0.806550
     71 C42          4.8740     0.3850     4.4550 C           0 URE       0.670200
     72 O13          4.8050    -0.4410     5.3430 O           0 URE      -0.651100
     73 N5           4.1130     1.4890     4.5450 N           0 URE      -0.513900
     74 C43          5.9150    -5.0870     0.4020 C           0 URE       0.899600
     75 O14          6.1120    -6.2690     0.1790 O           0 URE      -0.806550
     76 O15          5.3740    -4.7440     1.4400 O           0 URE      -0.806550
     77 C44          1.3250    -5.7930    -3.0960 C          0 URE      -0.051250
     78 C45          0.1320    -6.5160    -3.1600 C          0 URE      -0.166600
     79 C46         -1.0900    -5.8410    -3.1760 C          0 URE      -0.051250
     80 C47          0.1630    -7.9910    -3.2120 C           0 URE       0.909700
     81 O16          1.2340    -8.5810    -3.1980 O           0 URE      -0.865550
     82 O17         -0.8820    -8.6230    -3.2680 O           0 URE      -0.865550
     83 C48         -5.8140    -5.0450     0.3290 C           0 URE       0.899600
     84 O18         -6.1250    -6.2210     0.2380 O           0 URE      -0.806550
     85 O19         -5.1930    -4.6530     1.3020 O           0 URE      -0.806550
     86 C49         -2.9740     0.8070     6.1270 C           0 URE       0.908600
     87 O20         -2.0250     0.2180     6.6140 O           0 URE      -0.844800
     88 O21         -4.0260     0.8820     6.7400 O           0 URE      -0.844800
     89 H            2.3030     0.4720     4.8480 H          0 URE       0.090700
     90 H1           2.1730     2.3450     2.4960 H          0 URE       0.068950
     91 H2           3.1450     0.8610     2.3270 H          0 URE       0.068950
     92 H3          -2.3980     0.1920     3.0630 H          0 URE       0.068950
     93 H4          -1.4260    -0.1630     4.5140 H          0 URE       0.068950
     94 H5          -2.4760     2.4610     4.8750 H          0 URE       0.090700
     95 H6          -4.4530     2.2750     3.6670 H          0 URE       0.318000
     96 H7          -5.8370     2.1780     2.3370 H          0 URE       0.156500
     97 H8          -8.1440    -0.5510    -0.0230 H          0 URE       0.172000
     98 H9          -6.0690    -1.9590     3.4370 H          0 URE       0.156500
     99 H10         -7.6410    -2.5250    -0.8150 H          0 URE       0.320500
    100 H11         -6.7040    -4.6100    -1.5650 H          0 URE       0.091450
    101 H12         -5.1960    -2.8490    -2.2170 H          0 URE       0.076700
    102 H13         -4.5620    -2.6910    -0.5640 H          0 URE       0.076700
    103 H14          0.0500    -2.6590    -3.0250 H          0 URE       0.148500
    104 H15          5.3770    -2.7890    -2.0580 H          0 URE       0.076700
    105 H16          4.7440    -2.6200    -0.4060 H          0 URE       0.076700
    106 H17          6.8760    -4.5290    -1.4230 H          0 URE       0.091450
    107 H18          7.8880    -2.6160    -0.4850 H          0 URE       0.320500
    108 H19          5.9500    -1.9730     3.6570 H          0 URE       0.156500
    109 H20          5.9630     2.2170     2.8130 H          0 URE       0.156500
    110 H21          7.8110    -0.5290     0.0850 H          0 URE       0.172000
    111 H22          6.0890     3.4920     1.4170 H          0 URE       0.320500
    112 H23          6.9980     4.3170    -1.1330 H          0 URE       0.091450
    113 H24          5.7410     3.1140    -2.5800 H          0 URE       0.076700
    114 H25          5.0860     2.1800    -1.2160 H          0 URE       0.076700
    115 H26          0.3470     3.2660    -1.7610 H          0 URE       0.148500
    116 H27         -4.6600     1.8030    -1.3490 H          0 URE       0.076700
    117 H28         -3.8470     3.0730    -0.4020 H          0 URE       0.076700
    118 H29         -6.4180     3.4390    -2.0130 H          0 URE       0.091450
    119 H30         -6.4370     3.6280     0.8840 H          0 URE       0.320500
    120 H31         -1.8600     5.5270    -4.6430 H          0 URE       0.151000
    121 H32          2.0000     3.9330    -5.6470 H          0 URE       0.151000
    122 H33          4.5200     2.3510     4.7250 H          0 URE       0.318000
    123 H34          2.2720    -6.3120    -3.0840 H          0 URE       0.151000
    124 H35         -2.0140    -6.3970    -3.2240 H          0 URE       0.151000
@<TRIPOS>BOND
     1     1     2 1   
     2     2     3 1   
     3     2     4 1   
     4     4     5 1   
     5     4    73 1   
     6     4    89 1   
     7     5     6 1   
     8     5    90 1   
     9     5    91 1   
    10     6     7 1   
    11     7     8 1   
    12     8     9 1   
    13     8    92 1   
    14     8    93 1   
    15     9    10 1   
    16     9    86 1   
    17     9    94 1   
    18    10    11 1   
    19    10    95 1   
    20    11    12 2   
    21    11    13 1   
    22    13    14 ar  
    23    13    18 ar  
    24    14    15 ar  
    25    14    96 1   
    26    15    16 ar  
    27    15    57 1   
    28    16    17 ar  
    29    16    97 1   
    30    17    18 ar  
    31    17    19 1   
    32    18    98 1   
    33    19    20 2   
    34    19    21 1   
    35    21    22 1   
    36    21    99 1   
    37    22    23 1   
    38    22    83 1   
    39    22   100 1   
    40    23    24 1   
    41    23   101 1   
    42    23   102 1   
    43    24    25 1   
    44    25    26 1   
    45    26    27 ar  
    46    26    79 ar  
    47    27    28 ar  
    48    27   103 1   
    49    28    29 1   
    50    28    77 ar  
    51    29    30 1   
    52    30    31 1   
    53    31    32 1   
    54    31   104 1   
    55    31   105 1   
    56    32    33 1   
    57    32    74 1   
    58    32   106 1   
    59    33    34 1   
    60    33   107 1   
    61    34    35 2   
    62    34    36 1   
    63    36    37 ar  
    64    36    41 ar  
    65    37    38 ar  
    66    37   108 1   
    67    38    39 ar  
    68    38    71 1   
    69    39    40 ar  
    70    39   109 1   
    71    40    41 ar  
    72    40    42 1   
    73    41   110 1   
    74    42    43 2   
    75    42    44 1   
    76    44    45 1   
    77    44   111 1   
    78    45    46 1   
    79    45    68 1   
    80    45   112 1   
    81    46    47 1   
    82    46   113 1   
    83    46   114 1   
    84    47    48 1   
    85    48    49 1   
    86    49    50 ar  
    87    49    64 ar  
    88    50    51 ar  
    89    50   115 1   
    90    51    52 1   
    91    51    62 ar  
    92    52    53 1   
    93    53    54 1   
    94    54    55 1   
    95    54   116 1   
    96    54   117 1   
    97    55    56 1   
    98    55    59 1   
    99    55   118 1   
   100    56    57 1   
   101    56   119 1   
   102    57    58 2   
   103    59    60 1   
   104    59    61 1   
   105    62    63 ar  
   106    62   120 1   
   107    63    64 ar  
   108    63    65 1   
   109    64   121 1   
   110    65    66 1   
   111    65    67 1   
   112    68    69 1   
   113    68    70 1   
   114    71    72 2   
   115    71    73 1   
   116    73   122 1   
   117    74    75 1   
   118    74    76 1   
   119    77    78 ar  
   120    77   123 1   
   121    78    79 ar  
   122    78    80 1   
   123    79   124 1   
   124    80    81 1   
   125    80    82 1   
   126    83    84 1   
   127    83    85 1   
   128    86    87 1   
   129    86    88 1   
@<TRIPOS>SUBSTRUCTURE
     1 URE         1 TEMP              0 ****  ****    0 ROOT
