@<TRIPOS>MOLECULE
52
   92    98     1     0     0
SMALL
bcc


@<TRIPOS>ATOM
      1 O1           0.8970     1.3880     1.4620 O           1 52       -0.599350
      2 C1           1.6020     1.7590     0.5300 C           1 52        0.670700
      3 N1           2.9730     1.8170     0.5800 N           1 52       -0.562150
      4 C2           3.7250     1.3040     1.7340 C          1 52        0.144750
      5 C3           5.1310     1.8900     1.7640 C          1 52       -0.145050
      6 C4           5.5970     2.5070     2.9380 C          1 52       -0.079875
      7 C5           6.8830     3.0460     3.0010 C          1 52       -0.186500
      8 C6           7.7160     2.9720     1.8930 C          1 52        0.130600
      9 O2           8.9640     3.5090     1.9990 O          1 52       -0.494850
     10 C7           7.2840     2.3660     0.7190 C          1 52       -0.186500
     11 C8           5.9950     1.8280     0.6560 C          1 52       -0.079875
     12 C9           3.6980    -0.2730     1.9040 C          1 52        0.144750
     13 C10          4.2630    -1.0310     0.7040 C          1 52       -0.145050
     14 C11          3.5350    -1.1870    -0.4870 C          1 52       -0.079875
     15 C12          4.0870    -1.8590    -1.5780 C          1 52       -0.186500
     16 C13          5.3650    -2.3940    -1.4820 C          1 52        0.130600
     17 O3           5.8640    -3.0460    -2.5700 O          1 52       -0.494850
     18 C14          6.1010    -2.2720    -0.3100 C          1 52       -0.186500
     19 C15          5.5490    -1.5940     0.7800 C          1 52       -0.079875
     20 N2           2.3510    -0.7550     2.2260 N           1 52       -0.562150
     21 C16          2.1140    -1.9520     2.8590 C           1 52        0.670700
     22 O4           3.0060    -2.7140     3.2150 O           1 52       -0.599350
     23 C17          0.6840    -2.2860     3.1420 C          1 52       -0.145600
     24 C18          0.4120    -3.2320     4.1410 C          1 52       -0.065250
     25 C19         -0.9050    -3.5520     4.4740 C          1 52       -0.142000
     26 C20         -1.9620    -2.9330     3.8070 C          1 52       -0.065250
     27 C21         -1.7030    -2.0140     2.7850 C          1 52       -0.145600
     28 C22         -0.3810    -1.6920     2.4490 C          1 52       -0.070500
     29 C23         -2.8540    -1.3450     2.1220 C           1 52        0.670700
     30 O5          -3.8620    -1.0860     2.7680 O           1 52       -0.599350
     31 N3          -2.7020    -1.0530     0.7820 N           1 52       -0.562150
     32 C24         -3.8040    -0.4650     0.0100 C          1 52        0.144750
     33 C25         -4.7330    -1.5530    -0.5210 C          1 52       -0.145050
     34 C26         -4.2480    -2.7130    -1.1510 C          1 52       -0.079875
     35 C27         -5.1290    -3.6760    -1.6460 C          1 52       -0.186500
     36 C28         -6.4990    -3.4950    -1.5080 C          1 52        0.130600
     37 O6          -7.3210    -4.4610    -2.0040 O          1 52       -0.494850
     38 C29         -7.0060    -2.3620    -0.8820 C          1 52       -0.186500
     39 C30         -6.1250    -1.3970    -0.3900 C          1 52       -0.079875
     40 C31         -3.2500     0.5090    -1.0930 C          1 52        0.144750
     41 C32         -4.3270     1.4330    -1.6550 C          1 52       -0.145050
     42 C33         -5.1290     1.0790    -2.7530 C          1 52       -0.079875
     43 C34         -6.1170     1.9460    -3.2290 C          1 52       -0.186500
     44 C35         -6.3110     3.1720    -2.6050 C          1 52        0.130600
     45 O7          -7.2620     4.0480    -3.0370 O          1 52       -0.494850
     46 C36         -5.5380     3.5430    -1.5130 C          1 52       -0.186500
     47 C37         -4.5510     2.6770    -1.0380 C          1 52       -0.079875
     48 N4          -2.5140    -0.1910    -2.1640 N           1 52       -0.562150
     49 C38         -1.5820     0.3820    -2.9960 C           1 52        0.670700
     50 O8          -1.5140     0.0340    -4.1700 O           1 52       -0.599350
     51 C39         -0.6090     1.3630    -2.4660 C          1 52       -0.145600
     52 C40         -0.2080     2.4370    -3.2680 C          1 52       -0.065250
     53 C41          0.7760     3.3230    -2.8150 C          1 52       -0.142000
     54 C42          1.3770     3.1250    -1.5700 C          1 52       -0.065250
     55 C43          0.9860     2.0400    -0.7830 C          1 52       -0.145600
     56 C44         -0.0030     1.1580    -1.2270 C          1 52       -0.070500
     57 H1           3.4800     1.9240    -0.2890 H          1 52        0.319250
     58 H2           3.1920     1.7070     2.6080 H          1 52        0.091450
     59 H3           4.9610     2.5750     3.8190 H          1 52        0.139750
     60 H4           7.2340     3.5210     3.9130 H          1 52        0.145875
     61 H5           9.4310     3.3800     1.1570 H          1 52        0.420750
     62 H6           7.9310     2.2980    -0.1500 H          1 52        0.145875
     63 H7           5.6840     1.3460    -0.2690 H          1 52        0.139750
     64 H8           4.3140    -0.5160     2.7820 H          1 52        0.091450
     65 H9           2.5230    -0.8030    -0.5690 H          1 52        0.139750
     66 H10          3.5170    -1.9780    -2.4950 H          1 52        0.145875
     67 H11          6.7110    -3.4530    -2.3220 H          1 52        0.420750
     68 H12          7.0960    -2.6960    -0.2210 H          1 52        0.145875
     69 H13          6.1300    -1.5100     1.6970 H          1 52        0.139750
     70 H14          1.6040    -0.0670     2.1560 H          1 52        0.319250
     71 H15          1.2310    -3.7130     4.6750 H          1 52        0.155750
     72 H16         -1.1070    -4.2740     5.2620 H          1 52        0.145500
     73 H17         -2.9890    -3.1680     4.0830 H          1 52        0.155750
     74 H18         -0.1950    -0.9630     1.6690 H          1 52        0.144000
     75 H19         -1.9710    -1.5180     0.2620 H          1 52        0.319250
     76 H20         -4.3780     0.1460     0.7200 H          1 52        0.091450
     77 H21         -3.1800    -2.8840    -1.2620 H          1 52        0.139750
     78 H22         -4.7480    -4.5700    -2.1310 H          1 52        0.145875
     79 H23         -8.2380    -4.2290    -1.7840 H          1 52        0.420750
     80 H24         -8.0750    -2.2130    -0.7650 H          1 52        0.145875
     81 H25         -6.5330    -0.5150     0.1020 H          1 52        0.139750
     82 H26         -2.5270     1.1620    -0.5940 H          1 52        0.091450
     83 H27         -5.0030     0.1210    -3.2530 H          1 52        0.139750
     84 H28         -6.7190     1.6460    -4.0810 H          1 52        0.145875
     85 H29         -7.7050     3.6650    -3.8120 H          1 52        0.420750
     86 H30         -5.7020     4.5030    -1.0320 H          1 52        0.145875
     87 H31         -3.9580     2.9870    -0.1790 H          1 52        0.139750
     88 H32         -3.0820    -0.8390    -2.6970 H          1 52        0.319250
     89 H33         -0.6560     2.5800    -4.2500 H          1 52        0.155750
     90 H34          1.0750     4.1620    -3.4390 H          1 52        0.145500
     91 H35          2.1340     3.8230    -1.2200 H          1 52        0.155750
     92 H36         -0.2710     0.2970    -0.6210 H          1 52        0.144000
@<TRIPOS>BOND
     1     1     2 2   
     2     2     3 1   
     3     2    55 1   
     4     3     4 1   
     5     3    57 1   
     6     4     5 1   
     7     4    12 1   
     8     4    58 1   
     9     5     6 ar  
    10     5    11 ar  
    11     6     7 ar  
    12     6    59 1   
    13     7     8 ar  
    14     7    60 1   
    15     8     9 1   
    16     8    10 ar  
    17     9    61 1   
    18    10    11 ar  
    19    10    62 1   
    20    11    63 1   
    21    12    13 1   
    22    12    20 1   
    23    12    64 1   
    24    13    14 ar  
    25    13    19 ar  
    26    14    15 ar  
    27    14    65 1   
    28    15    16 ar  
    29    15    66 1   
    30    16    17 1   
    31    16    18 ar  
    32    17    67 1   
    33    18    19 ar  
    34    18    68 1   
    35    19    69 1   
    36    20    21 1   
    37    20    70 1   
    38    21    22 2   
    39    21    23 1   
    40    23    24 ar  
    41    23    28 ar  
    42    24    25 ar  
    43    24    71 1   
    44    25    26 ar  
    45    25    72 1   
    46    26    27 ar  
    47    26    73 1   
    48    27    28 ar  
    49    27    29 1   
    50    28    74 1   
    51    29    30 2   
    52    29    31 1   
    53    31    32 1   
    54    31    75 1   
    55    32    33 1   
    56    32    40 1   
    57    32    76 1   
    58    33    34 ar  
    59    33    39 ar  
    60    34    35 ar  
    61    34    77 1   
    62    35    36 ar  
    63    35    78 1   
    64    36    37 1   
    65    36    38 ar  
    66    37    79 1   
    67    38    39 ar  
    68    38    80 1   
    69    39    81 1   
    70    40    41 1   
    71    40    48 1   
    72    40    82 1   
    73    41    42 ar  
    74    41    47 ar  
    75    42    43 ar  
    76    42    83 1   
    77    43    44 ar  
    78    43    84 1   
    79    44    45 1   
    80    44    46 ar  
    81    45    85 1   
    82    46    47 ar  
    83    46    86 1   
    84    47    87 1   
    85    48    49 1   
    86    48    88 1   
    87    49    50 2   
    88    49    51 1   
    89    51    52 ar  
    90    51    56 ar  
    91    52    53 ar  
    92    52    89 1   
    93    53    54 ar  
    94    53    90 1   
    95    54    55 ar  
    96    54    91 1   
    97    55    56 ar  
    98    56    92 1   
@<TRIPOS>SUBSTRUCTURE
     1 52          1 TEMP              0 ****  ****    0 ROOT
