@<TRIPOS>MOLECULE
67
   48    50     1     0     0
SMALL
bcc


@<TRIPOS>ATOM
      1 H           -0.9200     1.6960    -0.5010 H          0 67        0.315000
      2 N           -1.4100     2.4460    -0.1280 N           0 67       -0.580900
      3 C           -0.7450     3.6680     0.3840 C          0 67        0.080500
      4 C1           0.6660     3.7520    -0.1940 C          0 67        0.080500
      5 N1           1.3480     2.4540    -0.0340 N           0 67       -0.580900
      6 H1           0.8570     1.6240     0.0700 H          0 67        0.315000
      7 C2           2.7130     2.4920    -0.0430 C           0 67        0.667700
      8 O            3.2980     3.5560    -0.0880 O           0 67       -0.586100
      9 C3           3.4710     1.2250     0.0040 C          0 67       -0.148600
     10 C4           4.8680     1.2380     0.0130 C          0 67       -0.061000
     11 C5           5.5740     0.0510     0.0470 C          0 67       -0.141000
     12 C6           4.9010    -1.1550     0.0690 C          0 67       -0.061000
     13 C7           3.5060    -1.1840     0.0590 C          0 67       -0.148600
     14 C8           2.7880     0.0100     0.0340 C          0 67       -0.079000
     15 C9           2.7820    -2.4720     0.0480 C           0 67        0.667700
     16 O1           3.3900    -3.5220    -0.0300 O           0 67       -0.586100
     17 N2           1.4170    -2.4650     0.1280 N           0 67       -0.580900
     18 H2           0.9240    -1.7220     0.5100 H          0 67        0.315000
     19 C10          0.7430    -3.6660    -0.4090 C          0 67        0.080500
     20 C11         -0.6730    -3.7440     0.1580 C          0 67        0.080500
     21 N3          -1.3460    -2.4390    -0.0110 N           0 67       -0.580900
     22 H3          -0.8580    -1.6110    -0.1410 H          0 67        0.315000
     23 C12         -2.7170    -2.4940     0.0310 C           0 67        0.667700
     24 O2          -3.2940    -3.5620     0.0940 O           0 67       -0.586100
     25 C13         -3.4750    -1.2270    -0.0010 C          0 67       -0.148600
     26 C14         -4.8720    -1.2370    -0.0090 C          0 67       -0.061000
     27 C15         -5.5770    -0.0480    -0.0340 C          0 67       -0.141000
     28 C16         -4.9020     1.1560    -0.0470 C          0 67       -0.061000
     29 C17         -3.5080     1.1830    -0.0390 C          0 67       -0.148600
     30 C18         -2.7910    -0.0110    -0.0190 C          0 67       -0.079000
     31 C19         -2.7800     2.4710    -0.0330 C           0 67        0.667700
     32 O3          -3.3800     3.5240     0.0570 O           0 67       -0.586100
     33 H4          -1.3150     4.5470     0.0810 H          0 67        0.061450
     34 H5          -0.6920     3.6250     1.4720 H          0 67        0.061450
     35 H6           0.6100     4.0040    -1.2520 H          0 67        0.061450
     36 H7           1.2280     4.5230     0.3330 H          0 67        0.061450
     37 H8           5.3980     2.1790    -0.0070 H          0 67        0.157000
     38 H9           6.6540     0.0660     0.0570 H          0 67        0.147000
     39 H10          5.4570    -2.0800     0.0940 H          0 67        0.157000
     40 H11          1.7080    -0.0060     0.0360 H          0 67        0.140000
     41 H12          0.6970    -3.6030    -1.4960 H          0 67        0.061450
     42 H13          1.3010    -4.5560    -0.1190 H          0 67        0.061450
     43 H14         -1.2340    -4.5140    -0.3720 H          0 67        0.061450
     44 H15         -0.6260    -3.9940     1.2180 H          0 67        0.061450
     45 H16         -5.4040    -2.1770     0.0050 H          0 67        0.157000
     46 H17         -6.6560    -0.0620    -0.0430 H          0 67        0.147000
     47 H18         -5.4570     2.0830    -0.0650 H          0 67        0.157000
     48 H19         -1.7110     0.0040    -0.0170 H          0 67        0.140000
@<TRIPOS>BOND
     1     1     2 1   
     2     2     3 1   
     3     2    31 1   
     4     3     4 1   
     5     3    33 1   
     6     3    34 1   
     7     4     5 1   
     8     4    35 1   
     9     4    36 1   
    10     5     6 1   
    11     5     7 1   
    12     7     8 2   
    13     7     9 1   
    14     9    10 ar  
    15     9    14 ar  
    16    10    11 ar  
    17    10    37 1   
    18    11    12 ar  
    19    11    38 1   
    20    12    13 ar  
    21    12    39 1   
    22    13    14 ar  
    23    13    15 1   
    24    14    40 1   
    25    15    16 2   
    26    15    17 1   
    27    17    18 1   
    28    17    19 1   
    29    19    20 1   
    30    19    41 1   
    31    19    42 1   
    32    20    21 1   
    33    20    43 1   
    34    20    44 1   
    35    21    22 1   
    36    21    23 1   
    37    23    24 2   
    38    23    25 1   
    39    25    26 ar  
    40    25    30 ar  
    41    26    27 ar  
    42    26    45 1   
    43    27    28 ar  
    44    27    46 1   
    45    28    29 ar  
    46    28    47 1   
    47    29    30 ar  
    48    29    31 1   
    49    30    48 1   
    50    31    32 2   
@<TRIPOS>SUBSTRUCTURE
     1 67          1 TEMP              0 ****  ****    0 ROOT
