@<TRIPOS>MOLECULE
196
   81    84     1     0     0
SMALL
bcc


@<TRIPOS>ATOM
      1 O           -6.9340     2.3430    -0.1030 O           0 196      -0.603600
      2 C           -6.0390     1.5230    -0.0460 C           0 196       0.666200
      3 N           -4.7600     1.9490     0.0080 N           0 196      -0.553900
      4 C1          -4.5720     3.4220     0.0370 C          0 196       0.085500
      5 C2          -3.0970     3.7500    -0.1700 C          0 196       0.096900
      6 O1          -2.9400     5.1660    -0.2630 O          0 196      -0.343900
      7 C3          -1.6130     5.4410    -0.1690 C          0 196       0.090100
      8 C4          -0.8380     5.5150    -1.3180 C          0 196      -0.147000
      9 C5           0.5130     5.7880    -1.2230 C          0 196      -0.144500
     10 C6           1.0970     5.9750     0.0200 C          0 196       0.094100
     11 O2           2.4300     6.2410     0.1180 O          0 196      -0.339400
     12 C7           3.0650     4.9990     0.4280 C          0 196       0.088900
     13 C8           4.5630     5.1090     0.1530 C          0 196       0.127400
     14 O3           5.0630     3.8520    -0.3050 O          0 196      -0.422600
     15 C9           6.2780     3.6150     0.4140 C          0 196       0.119400
     16 C10          6.9670     2.3680    -0.1460 C          0 196       0.125400
     17 O4           6.1850     1.2180     0.1770 O          0 196      -0.425600
     18 C11          6.9210     0.0800    -0.2780 C          0 196       0.125400
     19 C12          6.4240    -1.1770     0.4370 C          0 196       0.119400
     20 O5           6.7270    -2.3280    -0.3540 O          0 196      -0.422600
     21 C13          6.2090    -3.4540     0.3620 C          0 196       0.127400
     22 C14          5.2560    -4.2360    -0.5410 C          0 196       0.088900
     23 O6           4.7610    -5.3790     0.1590 O          0 196      -0.339400
     24 C15          3.4030    -5.3640     0.0350 C          0 196       0.094100
     25 C16          2.8270    -5.3620    -1.2270 C          0 196      -0.144500
     26 C17          1.4520    -5.3600    -1.3640 C          0 196      -0.147000
     27 C18          0.6470    -5.3560    -0.2340 C          0 196       0.090100
     28 O7          -0.7050    -5.3860    -0.3570 O          0 196      -0.343900
     29 C19         -1.2130    -4.0970    -0.0250 C          0 196       0.096900
     30 C20         -2.5850    -4.2290     0.6360 C          0 196       0.085500
     31 N1          -3.4360    -3.0770     0.2860 N           0 196      -0.553900
     32 C21         -4.7670    -3.3160     0.2020 C           0 196       0.666200
     33 O8          -5.1530    -4.4680     0.2320 O           0 196      -0.603600
     34 C22         -5.7660    -2.2400     0.0780 C          0 196      -0.147600
     35 C23         -7.1200    -2.5900    -0.0100 C          0 196      -0.057000
     36 C24         -8.0820    -1.6080    -0.1050 C          0 196      -0.146000
     37 C25         -7.7330    -0.2760    -0.1140 C          0 196      -0.057000
     38 C26         -6.3810     0.0860    -0.0320 C          0 196      -0.147600
     39 C27         -5.4040    -0.8950     0.0510 C          0 196      -0.079000
     40 C28          1.2250    -5.3440     1.0270 C          0 196      -0.147000
     41 C29          2.6000    -5.3550     1.1650 C          0 196      -0.144500
     42 C30          0.3250     5.8970     1.1700 C          0 196      -0.144500
     43 C31         -1.0300     5.6480     1.0730 C          0 196      -0.147000
     44 H           -4.0110     1.3330     0.0270 H          0 196       0.315500
     45 H1          -5.1620     3.8790    -0.7580 H          0 196       0.076200
     46 H2          -4.9000     3.8110     1.0010 H          0 196       0.076200
     47 H3          -2.5180     3.3740     0.6740 H          0 196       0.050950
     48 H4          -2.7460     3.2840    -1.0900 H          0 196       0.050950
     49 H5          -1.2910     5.3600    -2.2870 H          0 196       0.145250
     50 H6           1.1140     5.8560    -2.1170 H          0 196       0.147250
     51 H7           2.9050     4.7620     1.4800 H          0 196       0.054950
     52 H8           2.6390     4.2090    -0.1910 H          0 196       0.054950
     53 H9           4.7380     5.8680    -0.6090 H          0 196       0.062950
     54 H10          5.0800     5.3920     1.0700 H          0 196       0.062950
     55 H11          6.9380     4.4750     0.3050 H          0 196       0.052700
     56 H12          6.0510     3.4620     1.4690 H          0 196       0.052700
     57 H13          7.0560     2.4560    -1.2290 H          0 196       0.041700
     58 H14          7.9590     2.2700     0.2950 H          0 196       0.041700
     59 H15          6.7820    -0.0350    -1.3530 H          0 196       0.041700
     60 H16          7.9800     0.2250    -0.0650 H          0 196       0.041700
     61 H17          6.9170    -1.2630     1.4060 H          0 196       0.052700
     62 H18          5.3460    -1.1100     0.5830 H          0 196       0.052700
     63 H19          7.0320    -4.1000     0.6680 H          0 196       0.062950
     64 H20          5.6710    -3.1080     1.2450 H          0 196       0.062950
     65 H21          4.4210    -3.5960    -0.8280 H          0 196       0.054950
     66 H22          5.7880    -4.5600    -1.4360 H          0 196       0.054950
     67 H23          3.4560    -5.3610    -2.1050 H          0 196       0.147250
     68 H24          1.0060    -5.3620    -2.3480 H          0 196       0.145250
     69 H25         -0.5260    -3.6040     0.6630 H          0 196       0.050950
     70 H26         -1.3040    -3.5000    -0.9320 H          0 196       0.050950
     71 H27         -3.0630    -5.1470     0.2950 H          0 196       0.076200
     72 H28         -2.4610    -4.2690     1.7180 H          0 196       0.076200
     73 H29         -3.0630    -2.1960     0.1240 H          0 196       0.315500
     74 H30         -7.4100    -3.6310    -0.0040 H          0 196       0.160500
     75 H31         -9.1230    -1.8860    -0.1730 H          0 196       0.146000
     76 H32         -8.4970     0.4850    -0.1800 H          0 196       0.160500
     77 H33         -4.3620    -0.6150     0.1070 H          0 196       0.138000
     78 H34          0.5980    -5.3270     1.9060 H          0 196       0.145250
     79 H35          3.0470    -5.3560     2.1480 H          0 196       0.147250
     80 H36          0.7820     6.0300     2.1390 H          0 196       0.147250
     81 H37         -1.6370     5.6140     1.9650 H          0 196       0.145250
@<TRIPOS>BOND
     1     1     2 2   
     2     2     3 1   
     3     2    38 1   
     4     3     4 1   
     5     3    44 1   
     6     4     5 1   
     7     4    45 1   
     8     4    46 1   
     9     5     6 1   
    10     5    47 1   
    11     5    48 1   
    12     6     7 1   
    13     7     8 ar  
    14     7    43 ar  
    15     8     9 ar  
    16     8    49 1   
    17     9    10 ar  
    18     9    50 1   
    19    10    11 1   
    20    10    42 ar  
    21    11    12 1   
    22    12    13 1   
    23    12    51 1   
    24    12    52 1   
    25    13    14 1   
    26    13    53 1   
    27    13    54 1   
    28    14    15 1   
    29    15    16 1   
    30    15    55 1   
    31    15    56 1   
    32    16    17 1   
    33    16    57 1   
    34    16    58 1   
    35    17    18 1   
    36    18    19 1   
    37    18    59 1   
    38    18    60 1   
    39    19    20 1   
    40    19    61 1   
    41    19    62 1   
    42    20    21 1   
    43    21    22 1   
    44    21    63 1   
    45    21    64 1   
    46    22    23 1   
    47    22    65 1   
    48    22    66 1   
    49    23    24 1   
    50    24    25 ar  
    51    24    41 ar  
    52    25    26 ar  
    53    25    67 1   
    54    26    27 ar  
    55    26    68 1   
    56    27    28 1   
    57    27    40 ar  
    58    28    29 1   
    59    29    30 1   
    60    29    69 1   
    61    29    70 1   
    62    30    31 1   
    63    30    71 1   
    64    30    72 1   
    65    31    32 1   
    66    31    73 1   
    67    32    33 2   
    68    32    34 1   
    69    34    35 ar  
    70    34    39 ar  
    71    35    36 ar  
    72    35    74 1   
    73    36    37 ar  
    74    36    75 1   
    75    37    38 ar  
    76    37    76 1   
    77    38    39 ar  
    78    39    77 1   
    79    40    41 ar  
    80    40    78 1   
    81    41    79 1   
    82    42    43 ar  
    83    42    80 1   
    84    43    81 1   
@<TRIPOS>SUBSTRUCTURE
     1 196         1 TEMP              0 ****  ****    0 ROOT
