@<TRIPOS>MOLECULE
69
   60    62     1     0     0
SMALL
bcc


@<TRIPOS>ATOM
      1 H           -2.0300     1.5700    -0.2030 H          0 69        0.304000
      2 N           -2.4680     2.4320    -0.1310 N           0 69       -0.565900
      3 C           -1.7100     3.7040    -0.1120 C          0 69        0.088000
      4 C1          -0.2770     3.4270    -0.5750 C          0 69       -0.107900
      5 C2           0.6900     3.6590     0.5880 C          0 69       -0.107900
      6 C3           2.1180     3.7840     0.0500 C          0 69        0.088000
      7 N1           2.7420     2.4460     0.0430 N           0 69       -0.565900
      8 H1           2.2100     1.6350     0.0630 H          0 69        0.304000
      9 C4           4.1040     2.4080     0.0090 C           0 69        0.667700
     10 O            4.7530     3.4340    -0.0130 O           0 69       -0.595100
     11 C5           4.7740     1.0890    -0.0020 C          0 69       -0.147100
     12 C6           6.1670     1.0040    -0.0400 C          0 69       -0.057500
     13 C7           6.7860    -0.2310    -0.0520 C          0 69       -0.143000
     14 C8           6.0330    -1.3880    -0.0240 C          0 69       -0.057500
     15 C9           4.6390    -1.3170     0.0140 C          0 69       -0.147100
     16 C10          4.0080    -0.0750     0.0280 C          0 69       -0.087000
     17 C11          3.8310    -2.5560     0.0390 C           0 69        0.667700
     18 O1           4.3650    -3.6480     0.0090 O           0 69       -0.595100
     19 N2           2.4730    -2.4460     0.0960 N           0 69       -0.565900
     20 H2           2.0360    -1.5830     0.1720 H          0 69        0.304000
     21 C12          1.7000    -3.7020     0.0360 C          0 69        0.088000
     22 C13          0.2720    -3.4280     0.5110 C          0 69       -0.107900
     23 C14         -0.7070    -3.6710    -0.6400 C          0 69       -0.107900
     24 C15         -2.1290    -3.7850    -0.0870 C          0 69        0.088000
     25 N3          -2.7360    -2.4340    -0.0650 N           0 69       -0.565900
     26 H3          -2.2020    -1.6250    -0.0980 H          0 69        0.304000
     27 C16         -4.1020    -2.4060     0.0050 C           0 69        0.667700
     28 O2          -4.7470    -3.4350     0.0430 O           0 69       -0.595100
     29 C17         -4.7730    -1.0870     0.0320 C          0 69       -0.147100
     30 C18         -6.1640    -1.0020     0.1070 C          0 69       -0.057500
     31 C19         -6.7820     0.2330     0.1340 C          0 69       -0.143000
     32 C20         -6.0300     1.3910     0.0870 C          0 69       -0.057500
     33 C21         -4.6370     1.3180     0.0120 C          0 69       -0.147100
     34 C22         -4.0070     0.0760    -0.0180 C          0 69       -0.087000
     35 C23         -3.8280     2.5560    -0.0460 C           0 69        0.667700
     36 O3          -4.3560     3.6510    -0.0120 O           0 69       -0.595100
     37 H4          -2.1800     4.4200    -0.7870 H          0 69        0.066450
     38 H5          -1.6960     4.1070     0.9010 H          0 69        0.066450
     39 H6          -0.1980     2.3930    -0.9120 H          0 69        0.048200
     40 H7          -0.0250     4.0970    -1.3970 H          0 69        0.048200
     41 H8           0.4170     4.5770     1.1100 H          0 69        0.048200
     42 H9           0.6350     2.8190     1.2800 H          0 69        0.048200
     43 H10          2.0920     4.1800    -0.9650 H          0 69        0.066450
     44 H11          2.6930     4.4520     0.6910 H          0 69        0.066450
     45 H12          6.7610     1.9050    -0.0620 H          0 69        0.161000
     46 H13          7.8640    -0.2910    -0.0820 H          0 69        0.147000
     47 H14          6.5240    -2.3510    -0.0340 H          0 69        0.161000
     48 H15          2.9300    -0.0150     0.0610 H          0 69        0.129000
     49 H16          1.6800    -4.0700    -0.9900 H          0 69        0.066450
     50 H17          2.1640    -4.4470     0.6830 H          0 69        0.066450
     51 H18          0.0300    -4.0950     1.3390 H          0 69        0.048200
     52 H19          0.1920    -2.3930     0.8430 H          0 69        0.048200
     53 H20         -0.6560    -2.8380    -1.3420 H          0 69        0.048200
     54 H21         -0.4410    -4.5950    -1.1540 H          0 69        0.048200
     55 H22         -2.7190    -4.4410    -0.7270 H          0 69        0.066450
     56 H23         -2.0980    -4.1880     0.9250 H          0 69        0.066450
     57 H24         -6.7580    -1.9030     0.1440 H          0 69        0.161000
     58 H25         -7.8590     0.2940     0.1930 H          0 69        0.147000
     59 H26         -6.5200     2.3530     0.1080 H          0 69        0.161000
     60 H27         -2.9300     0.0150    -0.0790 H          0 69        0.129000
@<TRIPOS>BOND
     1     1     2 1   
     2     2     3 1   
     3     2    35 1   
     4     3     4 1   
     5     3    37 1   
     6     3    38 1   
     7     4     5 1   
     8     4    39 1   
     9     4    40 1   
    10     5     6 1   
    11     5    41 1   
    12     5    42 1   
    13     6     7 1   
    14     6    43 1   
    15     6    44 1   
    16     7     8 1   
    17     7     9 1   
    18     9    10 2   
    19     9    11 1   
    20    11    12 ar  
    21    11    16 ar  
    22    12    13 ar  
    23    12    45 1   
    24    13    14 ar  
    25    13    46 1   
    26    14    15 ar  
    27    14    47 1   
    28    15    16 ar  
    29    15    17 1   
    30    16    48 1   
    31    17    18 2   
    32    17    19 1   
    33    19    20 1   
    34    19    21 1   
    35    21    22 1   
    36    21    49 1   
    37    21    50 1   
    38    22    23 1   
    39    22    51 1   
    40    22    52 1   
    41    23    24 1   
    42    23    53 1   
    43    23    54 1   
    44    24    25 1   
    45    24    55 1   
    46    24    56 1   
    47    25    26 1   
    48    25    27 1   
    49    27    28 2   
    50    27    29 1   
    51    29    30 ar  
    52    29    34 ar  
    53    30    31 ar  
    54    30    57 1   
    55    31    32 ar  
    56    31    58 1   
    57    32    33 ar  
    58    32    59 1   
    59    33    34 ar  
    60    33    35 1   
    61    34    60 1   
    62    35    36 2   
@<TRIPOS>SUBSTRUCTURE
     1 69          1 TEMP              0 ****  ****    0 ROOT
