@<TRIPOS>MOLECULE
138
   70    72     1     0     0
SMALL
bcc


@<TRIPOS>ATOM
      1 C            0.1220     4.5040    -1.2390 C          0 138       0.147100
      2 N            0.2100     3.4820    -0.1880 N          0 138      -0.746600
      3 C1           1.3810     3.8210     0.6320 C          0 138       0.140800
      4 C2           2.6390     3.8000    -0.2390 C          0 138       0.089000
      5 N1           3.2560     2.4620    -0.1520 N           0 138      -0.562900
      6 C3           4.6120     2.4210    -0.0290 C           0 138       0.666700
      7 O            5.2630     3.4470     0.0140 O           0 138      -0.599600
      8 C4           5.2770     1.1010     0.0530 C          0 138      -0.147100
      9 C5           4.5150    -0.0640    -0.0040 C          0 138      -0.083000
     10 C6           5.1440    -1.3040     0.0730 C          0 138      -0.147100
     11 C7           6.5330    -1.3730     0.2070 C          0 138      -0.058000
     12 C8           7.2810    -0.2140     0.2630 C          0 138      -0.144000
     13 C9           6.6650     1.0200     0.1870 C          0 138      -0.058000
     14 C10          4.3390    -2.5440     0.0150 C           0 138       0.666700
     15 O1           4.8720    -3.6340     0.0780 O           0 138      -0.599600
     16 N2           2.9870    -2.4370    -0.1120 N           0 138      -0.562900
     17 C11          2.2240    -3.6990    -0.1720 C          0 138       0.089000
     18 C12          0.9160    -3.5220     0.6030 C          0 138       0.140800
     19 N3          -0.2220    -3.7920    -0.2860 N          0 138      -0.746600
     20 C13         -0.0340    -5.1510    -0.8110 C          0 138       0.147100
     21 C14         -1.4190    -3.8300     0.5650 C          0 138       0.140800
     22 C15         -2.6710    -3.7600    -0.3110 C          0 138       0.089000
     23 N4          -3.2670    -2.4150    -0.1860 N           0 138      -0.562900
     24 C16         -4.6210    -2.3590    -0.0560 C           0 138       0.666700
     25 O2          -5.2820    -3.3790    -0.0240 O           0 138      -0.599600
     26 C17         -5.2750    -1.0360     0.0470 C          0 138      -0.147100
     27 C18         -6.6610    -0.9500     0.1990 C          0 138      -0.058000
     28 C19         -7.2720     0.2850     0.2940 C          0 138      -0.144000
     29 C20         -6.5190     1.4420     0.2380 C          0 138      -0.058000
     30 C21         -5.1330     1.3690     0.0840 C          0 138      -0.147100
     31 C22         -4.5100     0.1260    -0.0090 C          0 138      -0.083000
     32 C23         -4.3260     2.6060     0.0210 C           0 138       0.666700
     33 O3          -4.8600     3.6960     0.0940 O           0 138      -0.599600
     34 N5          -2.9760     2.5050    -0.1200 N           0 138      -0.562900
     35 C24         -2.2220     3.7720    -0.1950 C          0 138       0.089000
     36 C25         -0.9690     3.6560     0.6700 C          0 138       0.140800
     37 H            1.0950     4.6210    -1.7160 H          0 138       0.037033
     38 H1          -0.6120     4.1970    -1.9840 H          0 138       0.037033
     39 H2          -0.1830     5.4530    -0.7990 H          0 138       0.037033
     40 H3           1.2510     4.8150     1.0580 H          0 138       0.041700
     41 H4           1.4840     3.0920     1.4360 H          0 138       0.041700
     42 H5           2.3700     4.0120    -1.2730 H          0 138       0.066200
     43 H6           3.3430     4.5510     0.1190 H          0 138       0.066200
     44 H7           2.7230     1.6520    -0.1820 H          0 138       0.313000
     45 H8           3.4420    -0.0050    -0.1080 H          0 138       0.133000
     46 H9           7.0210    -2.3340     0.2680 H          0 138       0.160000
     47 H10          8.3550    -0.2720     0.3670 H          0 138       0.146000
     48 H11          7.2560     1.9220     0.2310 H          0 138       0.160000
     49 H12          2.5470    -1.5740    -0.1600 H          0 138       0.313000
     50 H13          2.0030    -3.9440    -1.2110 H          0 138       0.066200
     51 H14          2.8090    -4.5010     0.2780 H          0 138       0.066200
     52 H15          0.8950    -4.2160     1.4420 H          0 138       0.041700
     53 H16          0.8510    -2.5000     0.9760 H          0 138       0.041700
     54 H17          0.1110    -5.8440     0.0170 H          0 138       0.037033
     55 H18         -0.9150    -5.4450    -1.3810 H          0 138       0.037033
     56 H19          0.8420    -5.1710    -1.4600 H          0 138       0.037033
     57 H20         -1.4280    -4.7580     1.1380 H          0 138       0.041700
     58 H21         -1.4060    -2.9810     1.2490 H          0 138       0.041700
     59 H22         -2.4000    -3.9440    -1.3510 H          0 138       0.066200
     60 H23         -3.3900    -4.5100     0.0190 H          0 138       0.066200
     61 H24         -2.7220    -1.6130    -0.1950 H          0 138       0.313000
     62 H25         -7.2560    -1.8500     0.2420 H          0 138       0.160000
     63 H26         -8.3430     0.3470     0.4150 H          0 138       0.146000
     64 H27         -7.0030     2.4040     0.3130 H          0 138       0.160000
     65 H28         -3.4370     0.0640    -0.1240 H          0 138       0.133000
     66 H29         -2.5310     1.6440    -0.1690 H          0 138       0.313000
     67 H30         -1.9320     3.9640    -1.2290 H          0 138       0.066200
     68 H31         -2.8440     4.5900     0.1690 H          0 138       0.066200
     69 H32         -1.0640     2.7950     1.3310 H          0 138       0.041700
     70 H33         -0.8550     4.5610     1.2660 H          0 138       0.041700
@<TRIPOS>BOND
     1     1     2 1   
     2     1    37 1   
     3     1    38 1   
     4     1    39 1   
     5     2     3 1   
     6     2    36 1   
     7     3     4 1   
     8     3    40 1   
     9     3    41 1   
    10     4     5 1   
    11     4    42 1   
    12     4    43 1   
    13     5     6 1   
    14     5    44 1   
    15     6     7 2   
    16     6     8 1   
    17     8     9 ar  
    18     8    13 ar  
    19     9    10 ar  
    20     9    45 1   
    21    10    11 ar  
    22    10    14 1   
    23    11    12 ar  
    24    11    46 1   
    25    12    13 ar  
    26    12    47 1   
    27    13    48 1   
    28    14    15 2   
    29    14    16 1   
    30    16    17 1   
    31    16    49 1   
    32    17    18 1   
    33    17    50 1   
    34    17    51 1   
    35    18    19 1   
    36    18    52 1   
    37    18    53 1   
    38    19    20 1   
    39    19    21 1   
    40    20    54 1   
    41    20    55 1   
    42    20    56 1   
    43    21    22 1   
    44    21    57 1   
    45    21    58 1   
    46    22    23 1   
    47    22    59 1   
    48    22    60 1   
    49    23    24 1   
    50    23    61 1   
    51    24    25 2   
    52    24    26 1   
    53    26    27 ar  
    54    26    31 ar  
    55    27    28 ar  
    56    27    62 1   
    57    28    29 ar  
    58    28    63 1   
    59    29    30 ar  
    60    29    64 1   
    61    30    31 ar  
    62    30    32 1   
    63    31    65 1   
    64    32    33 2   
    65    32    34 1   
    66    34    35 1   
    67    34    66 1   
    68    35    36 1   
    69    35    67 1   
    70    35    68 1   
    71    36    69 1   
    72    36    70 1   
@<TRIPOS>SUBSTRUCTURE
     1 138         1 TEMP              0 ****  ****    0 ROOT
