@<TRIPOS>MOLECULE
97
  210   222     1     0     0
SMALL
bcc


@<TRIPOS>ATOM
      1 C           12.7920    -0.8400    -0.2540 C          0 97       -0.076650
      2 C1          12.5760     0.1690    -1.3820 C          0 97       -0.076650
      3 C2          11.7950     1.3700    -0.8500 C          0 97       -0.107650
      4 C3          10.3770     0.9430    -0.4830 C          0 97        0.184250
      5 H            9.8040     0.7400    -1.3890 H          0 97        0.057617
      6 N            9.7130     2.0370     0.2470 N          0 97       -0.823617
      7 C4           8.9100     2.7510    -0.7560 C          0 97        0.120750
      8 C5           8.8390     4.2230    -0.4300 C          0 97        0.380600
      9 C6           9.9920     4.9770    -0.4750 C          0 97       -0.249467
     10 C7           9.9280     6.3300    -0.1700 C          0 97       -0.088833
     11 C8           8.6930     6.8730     0.1520 C          0 97       -0.249467
     12 C9           7.5730     6.0580     0.1560 C          0 97        0.380600
     13 C10          6.2270     6.6450     0.4870 C          0 97        0.120750
     14 N1           5.9720     7.9020    -0.2290 N          0 97       -0.823617
     15 C11          5.4410     8.8730     0.7360 C          0 97        0.184250
     16 C12          6.6380     9.7320     1.2110 C          0 97       -0.107650
     17 C13          7.2360    10.4130    -0.0280 C          0 97       -0.076650
     18 C14          6.1770    11.3460    -0.6300 C          0 97       -0.076650
     19 C15          4.9700    10.5170    -1.0870 C          0 97       -0.107650
     20 C16          4.3860     9.8000     0.1350 C          0 97        0.184250
     21 H1           4.1640    10.5780     0.8920 H          0 97        0.057617
     22 N2           3.1330     9.1230    -0.1910 N          0 97       -0.823617
     23 C17          2.1950     9.3640     0.9090 C          0 97        0.120750
     24 C18          0.8510     9.8340     0.4190 C          0 97        0.380600
     25 C19          0.7380    11.0730    -0.1820 C          0 97       -0.249467
     26 C20         -0.5050    11.4940    -0.6300 C          0 97       -0.088833
     27 C21         -1.5970    10.6570    -0.4400 C          0 97       -0.249467
     28 C22         -1.4090     9.4430     0.1880 C          0 97        0.380600
     29 C23         -2.5660     8.5160     0.4470 C          0 97        0.120750
     30 N3          -3.7810     8.9060    -0.2670 N          0 97       -0.823617
     31 C24         -4.8410     9.0620     0.7370 C          0 97        0.184250
     32 H2          -4.5690     8.5240     1.6460 H          0 97        0.057617
     33 C25         -4.9630    10.5570     1.0820 C          0 97       -0.107650
     34 C26         -6.4450    10.9360     1.1110 C          0 97       -0.076650
     35 C27         -7.0130    10.8490    -0.3090 C          0 97       -0.076650
     36 C28         -6.6790     9.4780    -0.9020 C          0 97       -0.107650
     37 C29         -6.1890     8.5580     0.2220 C          0 97        0.184250
     38 N4          -6.1260     7.1750    -0.2520 N          0 97       -0.823617
     39 C30         -6.7170     6.3140     0.7710 C          0 97        0.120750
     40 C31         -7.9410     5.5860     0.2800 C          0 97        0.380600
     41 N5          -7.8670     4.3100    -0.0450 N          0 97       -0.665833
     42 C32         -8.9250     3.6330    -0.4500 C          0 97        0.380600
     43 C33         -8.8000     2.1720    -0.7870 C          0 97        0.120750
     44 N6          -9.4270     1.3030     0.2130 N          0 97       -0.823617
     45 C34        -10.4870     0.5400    -0.4720 C          0 97        0.184250
     46 H3         -10.3050     0.5820    -1.5450 H          0 97        0.057617
     47 C35        -11.8160     1.2530    -0.1680 C          0 97       -0.107650
     48 C36        -12.9680     0.5410    -0.8800 C          0 97       -0.076650
     49 C37        -13.0640    -0.8770    -0.2940 C          0 97       -0.076650
     50 C38        -11.7650    -1.6060    -0.6290 C          0 97       -0.107650
     51 C39        -10.5620    -0.9040     0.0120 C          0 97        0.184250
     52 N7          -9.3640    -1.6920    -0.3270 N          0 97       -0.823617
     53 C40         -9.1740    -2.6280     0.7950 C          0 97        0.120750
     54 C41         -8.9320    -4.0350     0.3170 C          0 97        0.380600
     55 C42         -9.9510    -4.7190    -0.3180 C          0 97       -0.249467
     56 C43         -9.7040    -5.9950    -0.8070 C          0 97       -0.088833
     57 C44         -8.4440    -6.5460    -0.6090 C          0 97       -0.249467
     58 C45         -7.4980    -5.8270     0.0950 C          0 97        0.380600
     59 C46         -6.1370    -6.4180     0.3670 C          0 97        0.120750
     60 N8          -5.9130    -7.6910    -0.3170 N          0 97       -0.823617
     61 C47         -5.5420    -8.6970     0.6830 C          0 97        0.184250
     62 H4          -5.2050    -8.2110     1.6010 H          0 97        0.057617
     63 C48         -6.7930    -9.5310     1.0190 C          0 97       -0.107650
     64 C49         -6.4390   -11.0170     0.9250 C          0 97       -0.076650
     65 C50         -6.0810   -11.3670    -0.5220 C          0 97       -0.076650
     66 C51         -4.9480   -10.4500    -0.9960 C          0 97       -0.107650
     67 C52         -4.4390    -9.6350     0.1910 C          0 97        0.184250
     68 N9          -3.2020    -8.9280    -0.1530 N          0 97       -0.823617
     69 C53         -2.2310    -9.2500     0.8970 C          0 97        0.120750
     70 C54         -0.9190    -9.7380     0.3420 C          0 97        0.380600
     71 N10          0.1840    -9.0670     0.6120 N          0 97       -0.665833
     72 C55          1.3640    -9.4630     0.1740 C          0 97        0.380600
     73 C56          2.5830    -8.6580     0.5370 C          0 97        0.120750
     74 N11          3.7870    -9.1000    -0.1730 N          0 97       -0.823617
     75 C57          4.8810    -9.1250     0.8080 C          0 97        0.184250
     76 C58          5.0030   -10.5730     1.3310 C          0 97       -0.107650
     77 C59          5.3320   -11.4900     0.1490 C          0 97       -0.076650
     78 C60          6.6610   -11.0580    -0.4780 C          0 97       -0.076650
     79 C61          6.5350    -9.6210    -0.9990 C          0 97       -0.107650
     80 C62          6.2170    -8.7100     0.1930 C          0 97        0.184250
     81 H5           7.0030    -8.8830     0.9510 H          0 97        0.057617
     82 N12          6.2590    -7.3030    -0.1960 N          0 97       -0.823617
     83 C63          6.9110    -6.5620     0.8860 C          0 97        0.120750
     84 C64          8.0880    -5.7580     0.4010 C          0 97        0.380600
     85 N13          8.0830    -4.4470     0.5510 N          0 97       -0.665833
     86 C65          9.0970    -3.6990     0.1530 C          0 97        0.380600
     87 C66          9.0170    -2.2110     0.3650 C          0 97        0.120750
     88 N14         10.0270    -1.4950    -0.4170 N          0 97       -0.823617
     89 C67         10.4280    -0.3230     0.3780 C          0 97        0.184250
     90 C68         11.8460    -0.5230     0.9070 C          0 97       -0.107650
     91 C69         10.2070    -4.2680    -0.4380 C          0 97       -0.249467
     92 C70         10.2490    -5.6450    -0.6040 C          0 97       -0.088833
     93 C71          9.1710    -6.4000    -0.1700 C          0 97       -0.249467
     94 C72          1.4830   -10.6000    -0.6020 C          0 97       -0.249467
     95 C73          0.3440   -11.3300    -0.9090 C          0 97       -0.088833
     96 C74         -0.8790   -10.8880    -0.4230 C          0 97       -0.249467
     97 N15         -7.7710    -4.6110     0.5380 N          0 97       -0.665833
     98 C75        -10.1530     4.2580    -0.5870 C          0 97       -0.249467
     99 C76        -10.2690     5.5980    -0.2490 C          0 97       -0.088833
    100 C77         -9.1430     6.2670     0.2020 C          0 97       -0.249467
    101 N16         -0.2060     9.0700     0.5910 N          0 97       -0.665833
    102 N17          7.6850     4.7680    -0.1150 N          0 97       -0.665833
    103 H6          12.5880    -1.8460    -0.6230 H          0 97        0.038492
    104 H7          13.8240    -0.7830     0.0920 H          0 97        0.038492
    105 H8          13.5430     0.5030    -1.7600 H          0 97        0.038492
    106 H9          12.0140    -0.3020    -2.1880 H          0 97        0.038492
    107 H10         12.2950     1.7640     0.0350 H          0 97        0.047283
    108 H11         11.7540     2.1440    -1.6170 H          0 97        0.047283
    109 H12          9.0620     1.6050     0.8860 H          0 97        0.383050
    110 H13          9.3650     2.6230    -1.7390 H          0 97        0.061992
    111 H14          7.9020     2.3370    -0.7710 H          0 97        0.061992
    112 H15         10.9340     4.5210    -0.7450 H          0 97        0.143833
    113 H16         10.8170     6.9430    -0.1840 H          0 97        0.138167
    114 H17          8.6060     7.9210     0.3970 H          0 97        0.143833
    115 H18          5.4530     5.9250     0.2210 H          0 97        0.061992
    116 H19          6.1780     6.8340     1.5590 H          0 97        0.061992
    117 H20          6.8690     8.2530    -0.5290 H          0 97        0.383050
    118 H21          5.0260     8.3510     1.5950 H          0 97        0.057617
    119 H22          6.2940    10.4860     1.9190 H          0 97        0.047283
    120 H23          7.3870     9.0950     1.6810 H          0 97        0.047283
    121 H24          8.1130    10.9930     0.2600 H          0 97        0.038492
    122 H25          7.5180     9.6580    -0.7610 H          0 97        0.038492
    123 H26          5.8580    12.0680     0.1210 H          0 97        0.038492
    124 H27          6.6000    11.8730    -1.4850 H          0 97        0.038492
    125 H28          4.2170    11.1740    -1.5230 H          0 97        0.047283
    126 H29          5.2880     9.7820    -1.8270 H          0 97        0.047283
    127 H30          2.7540     9.5880    -1.0020 H          0 97        0.383050
    128 H31          2.0630     8.4390     1.4700 H          0 97        0.061992
    129 H32          2.6150    10.1200     1.5720 H          0 97        0.061992
    130 H33          1.6060    11.7050    -0.3000 H          0 97        0.143833
    131 H34         -0.6220    12.4510    -1.1170 H          0 97        0.138167
    132 H35         -2.5790    10.9520    -0.7790 H          0 97        0.143833
    133 H36         -2.2850     7.5090     0.1380 H          0 97        0.061992
    134 H37         -2.7750     8.5060     1.5170 H          0 97        0.061992
    135 H38         -3.6090     9.8220    -0.6530 H          0 97        0.383050
    136 H39         -4.5190    10.7430     2.0600 H          0 97        0.047283
    137 H40         -4.4480    11.1500     0.3260 H          0 97        0.047283
    138 H41         -6.9850    10.2480     1.7620 H          0 97        0.038492
    139 H42         -6.5540    11.9540     1.4850 H          0 97        0.038492
    140 H43         -8.0950    10.9770    -0.2760 H          0 97        0.038492
    141 H44         -6.5710    11.6310    -0.9260 H          0 97        0.038492
    142 H45         -7.5700     9.0500    -1.3610 H          0 97        0.047283
    143 H46         -5.8960     9.5860    -1.6530 H          0 97        0.047283
    144 H47         -6.9130     8.6120     1.0480 H          0 97        0.057617
    145 H48         -6.7260     7.1180    -1.0610 H          0 97        0.383050
    146 H49         -5.9740     5.5810     1.0860 H          0 97        0.061992
    147 H50         -6.9920     6.9260     1.6300 H          0 97        0.061992
    148 H51         -9.2710     1.9920    -1.7540 H          0 97        0.061992
    149 H52         -7.7430     1.9170    -0.8610 H          0 97        0.061992
    150 H53         -8.7260     0.6350     0.4970 H          0 97        0.383050
    151 H54        -11.9930     1.2430     0.9070 H          0 97        0.047283
    152 H55        -11.7590     2.2850    -0.5140 H          0 97        0.047283
    153 H56        -13.9000     1.0780    -0.7050 H          0 97        0.038492
    154 H57        -12.7660     0.4870    -1.9500 H          0 97        0.038492
    155 H58        -13.1890    -0.8210     0.7870 H          0 97        0.038492
    156 H59        -13.9080    -1.4040    -0.7380 H          0 97        0.038492
    157 H60        -11.8220    -2.6290    -0.2570 H          0 97        0.047283
    158 H61        -11.6340    -1.6260    -1.7100 H          0 97        0.047283
    159 H62        -10.6630    -0.9340     1.0990 H          0 97        0.057617
    160 H63         -9.6020    -2.2510    -1.1330 H          0 97        0.383050
    161 H64         -8.3200    -2.3020     1.3880 H          0 97        0.061992
    162 H65        -10.0660    -2.6140     1.4220 H          0 97        0.061992
    163 H66        -10.9260    -4.2680    -0.4310 H          0 97        0.143833
    164 H67        -10.4730    -6.5450    -1.3290 H          0 97        0.138167
    165 H68         -8.2080    -7.5240    -1.0010 H          0 97        0.143833
    166 H69         -5.3760    -5.7080     0.0420 H          0 97        0.061992
    167 H70         -6.0310    -6.5740     1.4400 H          0 97        0.061992
    168 H71         -6.8030    -7.9760    -0.6980 H          0 97        0.383050
    169 H72         -7.1260    -9.2980     2.0300 H          0 97        0.047283
    170 H73         -7.5870    -9.3000     0.3090 H          0 97        0.047283
    171 H74         -5.5870   -11.2290     1.5720 H          0 97        0.038492
    172 H75         -7.2940   -11.6150     1.2430 H          0 97        0.038492
    173 H76         -5.7550   -12.4060    -0.5760 H          0 97        0.038492
    174 H77         -6.9540   -11.2250    -1.1580 H          0 97        0.038492
    175 H78         -4.1350   -11.0540    -1.3990 H          0 97        0.047283
    176 H79         -5.3210    -9.7770    -1.7670 H          0 97        0.047283
    177 H80         -4.2000   -10.3320     1.0120 H          0 97        0.057617
    178 H81         -2.8570    -9.3460    -1.0050 H          0 97        0.383050
    179 H82         -2.0500    -8.3570     1.4960 H          0 97        0.061992
    180 H83         -2.6510   -10.0240     1.5400 H          0 97        0.061992
    181 H84          2.3970    -7.6110     0.2960 H          0 97        0.061992
    182 H85          2.7550    -8.7450     1.6100 H          0 97        0.061992
    183 H86          3.6250   -10.0560    -0.4520 H          0 97        0.383050
    184 H87          4.6370    -8.4740     1.6430 H          0 97        0.057617
    185 H88          5.8010   -10.6290     2.0710 H          0 97        0.047283
    186 H89          4.0600   -10.8800     1.7810 H          0 97        0.047283
    187 H90          5.4130   -12.5190     0.4990 H          0 97        0.038492
    188 H91          4.5390   -11.4210    -0.5960 H          0 97        0.038492
    189 H92          7.4500   -11.1040     0.2720 H          0 97        0.038492
    190 H93          6.9060   -11.7240    -1.3050 H          0 97        0.038492
    191 H94          7.4730    -9.3130    -1.4590 H          0 97        0.047283
    192 H95          5.7290    -9.5650    -1.7310 H          0 97        0.047283
    193 H96          6.8690    -7.2420    -0.9970 H          0 97        0.383050
    194 H97          6.1850    -5.8870     1.3400 H          0 97        0.061992
    195 H98          7.2540    -7.2680     1.6420 H          0 97        0.061992
    196 H99          8.0270    -1.8630     0.0710 H          0 97        0.061992
    197 H100         9.1690    -1.9950     1.4230 H          0 97        0.061992
    198 H101        10.8340    -2.0980    -0.4710 H          0 97        0.383050
    199 H102         9.7410    -0.2040     1.2240 H          0 97        0.057617
    200 H103        11.8550    -1.3490     1.6180 H          0 97        0.047283
    201 H104        12.1790     0.3870     1.4070 H          0 97        0.047283
    202 H105        11.0300    -3.6510    -0.7660 H          0 97        0.143833
    203 H106        11.1050    -6.1190    -1.0620 H          0 97        0.138167
    204 H107         9.1760    -7.4750    -0.2770 H          0 97        0.143833
    205 H108         2.4500   -10.9160    -0.9650 H          0 97        0.143833
    206 H109         0.4070   -12.2240    -1.5130 H          0 97        0.138167
    207 H110        -1.7850   -11.4350    -0.6400 H          0 97        0.143833
    208 H111       -11.0080     3.7100    -0.9530 H          0 97        0.143833
    209 H112       -11.2170     6.1080    -0.3350 H          0 97        0.138167
    210 H113        -9.2030     7.3070     0.4890 H          0 97        0.143833
@<TRIPOS>BOND
     1     1     2 1   
     2     1    90 1   
     3     1   103 1   
     4     1   104 1   
     5     2     3 1   
     6     2   105 1   
     7     2   106 1   
     8     3     4 1   
     9     3   107 1   
    10     3   108 1   
    11     4     5 1   
    12     4     6 1   
    13     4    89 1   
    14     6     7 1   
    15     6   109 1   
    16     7     8 1   
    17     7   110 1   
    18     7   111 1   
    19     8     9 ar  
    20     8   102 ar  
    21     9    10 ar  
    22     9   112 1   
    23    10    11 ar  
    24    10   113 1   
    25    11    12 ar  
    26    11   114 1   
    27    12    13 1   
    28    12   102 ar  
    29    13    14 1   
    30    13   115 1   
    31    13   116 1   
    32    14    15 1   
    33    14   117 1   
    34    15    16 1   
    35    15    20 1   
    36    15   118 1   
    37    16    17 1   
    38    16   119 1   
    39    16   120 1   
    40    17    18 1   
    41    17   121 1   
    42    17   122 1   
    43    18    19 1   
    44    18   123 1   
    45    18   124 1   
    46    19    20 1   
    47    19   125 1   
    48    19   126 1   
    49    20    21 1   
    50    20    22 1   
    51    22    23 1   
    52    22   127 1   
    53    23    24 1   
    54    23   128 1   
    55    23   129 1   
    56    24    25 ar  
    57    24   101 ar  
    58    25    26 ar  
    59    25   130 1   
    60    26    27 ar  
    61    26   131 1   
    62    27    28 ar  
    63    27   132 1   
    64    28    29 1   
    65    28   101 ar  
    66    29    30 1   
    67    29   133 1   
    68    29   134 1   
    69    30    31 1   
    70    30   135 1   
    71    31    32 1   
    72    31    33 1   
    73    31    37 1   
    74    33    34 1   
    75    33   136 1   
    76    33   137 1   
    77    34    35 1   
    78    34   138 1   
    79    34   139 1   
    80    35    36 1   
    81    35   140 1   
    82    35   141 1   
    83    36    37 1   
    84    36   142 1   
    85    36   143 1   
    86    37    38 1   
    87    37   144 1   
    88    38    39 1   
    89    38   145 1   
    90    39    40 1   
    91    39   146 1   
    92    39   147 1   
    93    40    41 ar  
    94    40   100 ar  
    95    41    42 ar  
    96    42    43 1   
    97    42    98 ar  
    98    43    44 1   
    99    43   148 1   
   100    43   149 1   
   101    44    45 1   
   102    44   150 1   
   103    45    46 1   
   104    45    47 1   
   105    45    51 1   
   106    47    48 1   
   107    47   151 1   
   108    47   152 1   
   109    48    49 1   
   110    48   153 1   
   111    48   154 1   
   112    49    50 1   
   113    49   155 1   
   114    49   156 1   
   115    50    51 1   
   116    50   157 1   
   117    50   158 1   
   118    51    52 1   
   119    51   159 1   
   120    52    53 1   
   121    52   160 1   
   122    53    54 1   
   123    53   161 1   
   124    53   162 1   
   125    54    55 ar  
   126    54    97 ar  
   127    55    56 ar  
   128    55   163 1   
   129    56    57 ar  
   130    56   164 1   
   131    57    58 ar  
   132    57   165 1   
   133    58    59 1   
   134    58    97 ar  
   135    59    60 1   
   136    59   166 1   
   137    59   167 1   
   138    60    61 1   
   139    60   168 1   
   140    61    62 1   
   141    61    63 1   
   142    61    67 1   
   143    63    64 1   
   144    63   169 1   
   145    63   170 1   
   146    64    65 1   
   147    64   171 1   
   148    64   172 1   
   149    65    66 1   
   150    65   173 1   
   151    65   174 1   
   152    66    67 1   
   153    66   175 1   
   154    66   176 1   
   155    67    68 1   
   156    67   177 1   
   157    68    69 1   
   158    68   178 1   
   159    69    70 1   
   160    69   179 1   
   161    69   180 1   
   162    70    71 ar  
   163    70    96 ar  
   164    71    72 ar  
   165    72    73 1   
   166    72    94 ar  
   167    73    74 1   
   168    73   181 1   
   169    73   182 1   
   170    74    75 1   
   171    74   183 1   
   172    75    76 1   
   173    75    80 1   
   174    75   184 1   
   175    76    77 1   
   176    76   185 1   
   177    76   186 1   
   178    77    78 1   
   179    77   187 1   
   180    77   188 1   
   181    78    79 1   
   182    78   189 1   
   183    78   190 1   
   184    79    80 1   
   185    79   191 1   
   186    79   192 1   
   187    80    81 1   
   188    80    82 1   
   189    82    83 1   
   190    82   193 1   
   191    83    84 1   
   192    83   194 1   
   193    83   195 1   
   194    84    85 ar  
   195    84    93 ar  
   196    85    86 ar  
   197    86    87 1   
   198    86    91 ar  
   199    87    88 1   
   200    87   196 1   
   201    87   197 1   
   202    88    89 1   
   203    88   198 1   
   204    89    90 1   
   205    89   199 1   
   206    90   200 1   
   207    90   201 1   
   208    91    92 ar  
   209    91   202 1   
   210    92    93 ar  
   211    92   203 1   
   212    93   204 1   
   213    94    95 ar  
   214    94   205 1   
   215    95    96 ar  
   216    95   206 1   
   217    96   207 1   
   218    98    99 ar  
   219    98   208 1   
   220    99   100 ar  
   221    99   209 1   
   222   100   210 1   
@<TRIPOS>SUBSTRUCTURE
     1 97          1 TEMP              0 ****  ****    0 ROOT
