@<TRIPOS>MOLECULE
120
   88    94     1     0     0
SMALL
bcc


@<TRIPOS>ATOM
      1 O            0.3330    -5.1740     1.1250 O           0 120      -0.637100
      2 C            0.1860    -4.7550    -0.0070 C           0 120       0.741100
      3 N            1.2570    -4.5690    -0.8270 N           0 120      -0.544900
      4 C1           2.5890    -4.8760    -0.2660 C          0 120       0.128300
      5 C2           3.3850    -3.5960    -0.2020 C          0 120      -0.133300
      6 C3           3.4080    -2.8710     0.9750 C          0 120      -0.110000
      7 C4           4.1020    -1.6810     1.0470 C          0 120      -0.142750
      8 C5           4.7830    -1.2110    -0.0740 C          0 120       0.138850
      9 C6           4.7880    -1.9610    -1.2410 C          0 120      -0.142750
     10 C7           4.0890    -3.1540    -1.3070 C          0 120      -0.110000
     11 N1           5.4110     0.0320    -0.0140 N          0 120      -0.441300
     12 C8           6.8060     0.1070    -0.0630 C          0 120       0.155600
     13 C9           7.4240     1.1170    -0.7890 C          0 120      -0.169500
     14 C10          8.8030     1.1890    -0.8340 C          0 120      -0.104750
     15 C11          9.5670     0.2560    -0.1570 C          0 120      -0.158000
     16 C12          8.9550    -0.7500     0.5670 C          0 120      -0.104750
     17 C13          7.5770    -0.8250     0.6210 C          0 120      -0.169500
     18 C14          4.6590     1.2000     0.0920 C          0 120       0.138850
     19 C15          4.4620     1.8800     1.2740 C          0 120      -0.142750
     20 C16          3.6900     3.0280     1.3030 C          0 120      -0.110000
     21 C17          3.1250     3.5030     0.1360 C          0 120      -0.133300
     22 C18          2.2630     4.7390     0.1450 C          0 120       0.128300
     23 N2           1.0210     4.4470    -0.5990 N           0 120      -0.544900
     24 C19         -0.1510     4.7720     0.0100 C           0 120       0.741100
     25 O1          -0.1640     5.2390     1.1320 O           0 120      -0.637100
     26 N3          -1.3080     4.5590    -0.6700 N           0 120      -0.544900
     27 C20         -2.5660     4.8400     0.0530 C          0 120       0.128300
     28 C21         -3.3770     3.5670     0.0770 C          0 120      -0.133300
     29 C22         -4.0590     3.1720    -1.0590 C          0 120      -0.110000
     30 C23         -4.7740     1.9900    -1.0500 C          0 120      -0.142750
     31 C24         -4.8070     1.1990     0.0930 C          0 120       0.138850
     32 C25         -4.1550     1.6230     1.2440 C          0 120      -0.142750
     33 C26         -3.4400     2.8060     1.2280 C          0 120      -0.110000
     34 N4          -5.4530    -0.0400     0.0550 N          0 120      -0.441300
     35 C27         -6.8400    -0.1200    -0.0970 C          0 120       0.155600
     36 C28         -7.5800     1.0290    -0.3470 C          0 120      -0.169500
     37 C29         -8.9510     0.9470    -0.4960 C          0 120      -0.104750
     38 C30         -9.5870    -0.2770    -0.3970 C          0 120      -0.158000
     39 C31         -8.8530    -1.4230    -0.1480 C          0 120      -0.104750
     40 C32         -7.4820    -1.3480    -0.0030 C          0 120      -0.169500
     41 C33         -4.6770    -1.2000     0.1700 C          0 120       0.138850
     42 C34         -4.9610    -2.3220    -0.5880 C          0 120      -0.142750
     43 C35         -4.1610    -3.4440    -0.5090 C          0 120      -0.110000
     44 C36         -3.0870    -3.4560     0.3670 C          0 120      -0.133300
     45 C37         -2.1980    -4.6730     0.4250 C          0 120       0.128300
     46 N5          -1.0540    -4.4650    -0.4910 N           0 120      -0.544900
     47 C38         -2.8380    -2.3630     1.1720 C          0 120      -0.110000
     48 C39         -3.6250    -1.2290     1.0850 C          0 120      -0.142750
     49 C40          3.3410     2.8400    -1.0590 C          0 120      -0.110000
     50 C41          4.1000     1.6930    -1.0930 C          0 120      -0.142750
     51 H            1.1500    -4.2510    -1.7370 H          0 120       0.293000
     52 H1           2.4790    -5.2890     0.7370 H          0 120       0.077950
     53 H2           3.1010    -5.5950    -0.9060 H          0 120       0.077950
     54 H3           2.8790    -3.2380     1.8420 H          0 120       0.137875
     55 H4           4.1180    -1.1160     1.9670 H          0 120       0.147000
     56 H5           5.3400    -1.6130    -2.1010 H          0 120       0.147000
     57 H6           4.0920    -3.7350    -2.2170 H          0 120       0.137875
     58 H7           6.8270     1.8450    -1.3180 H          0 120       0.143500
     59 H8           9.2840     1.9740    -1.3990 H          0 120       0.132500
     60 H9          10.6450     0.3140    -0.1950 H          0 120       0.133000
     61 H10          9.5560    -1.4770     1.0940 H          0 120       0.132500
     62 H11          7.1000    -1.6110     1.1860 H          0 120       0.143500
     63 H12          4.9140     1.5140     2.1850 H          0 120       0.147000
     64 H13          3.5290     3.5500     2.2350 H          0 120       0.137875
     65 H14          2.0200     5.0100     1.1730 H          0 120       0.077950
     66 H15          2.7930     5.5610    -0.3360 H          0 120       0.077950
     67 H16          1.0410     4.0430    -1.4800 H          0 120       0.293000
     68 H17         -1.3080     4.2380    -1.5860 H          0 120       0.293000
     69 H18         -2.3440     5.1550     1.0720 H          0 120       0.077950
     70 H19         -3.1220     5.6220    -0.4630 H          0 120       0.077950
     71 H20         -4.0330     3.7840    -1.9480 H          0 120       0.137875
     72 H21         -5.3100     1.6800    -1.9350 H          0 120       0.147000
     73 H22         -4.2060     1.0310     2.1460 H          0 120       0.147000
     74 H23         -2.9300     3.1370     2.1200 H          0 120       0.137875
     75 H24         -7.0840     1.9860    -0.4240 H          0 120       0.143500
     76 H25         -9.5270     1.8400    -0.6900 H          0 120       0.132500
     77 H26        -10.6580    -0.3380    -0.5130 H          0 120       0.133000
     78 H27         -9.3530    -2.3770    -0.0700 H          0 120       0.132500
     79 H28         -6.9090    -2.2430     0.1910 H          0 120       0.143500
     80 H29         -5.8150    -2.3200    -1.2490 H          0 120       0.147000
     81 H30         -4.3700    -4.3060    -1.1250 H          0 120       0.137875
     82 H31         -1.8340    -4.8130     1.4430 H          0 120       0.077950
     83 H32         -2.7600    -5.5530     0.1090 H          0 120       0.077950
     84 H33         -1.1810    -4.1330    -1.3930 H          0 120       0.293000
     85 H34         -2.0210    -2.3940     1.8770 H          0 120       0.137875
     86 H35         -3.4260    -0.3770     1.7170 H          0 120       0.147000
     87 H36          2.9100     3.2250    -1.9710 H          0 120       0.137875
     88 H37          4.2640     1.1770    -2.0280 H          0 120       0.147000
@<TRIPOS>BOND
     1     1     2 2   
     2     2     3 1   
     3     2    46 1   
     4     3     4 1   
     5     3    51 1   
     6     4     5 1   
     7     4    52 1   
     8     4    53 1   
     9     5     6 ar  
    10     5    10 ar  
    11     6     7 ar  
    12     6    54 1   
    13     7     8 ar  
    14     7    55 1   
    15     8     9 ar  
    16     8    11 1   
    17     9    10 ar  
    18     9    56 1   
    19    10    57 1   
    20    11    12 1   
    21    11    18 1   
    22    12    13 ar  
    23    12    17 ar  
    24    13    14 ar  
    25    13    58 1   
    26    14    15 ar  
    27    14    59 1   
    28    15    16 ar  
    29    15    60 1   
    30    16    17 ar  
    31    16    61 1   
    32    17    62 1   
    33    18    19 ar  
    34    18    50 ar  
    35    19    20 ar  
    36    19    63 1   
    37    20    21 ar  
    38    20    64 1   
    39    21    22 1   
    40    21    49 ar  
    41    22    23 1   
    42    22    65 1   
    43    22    66 1   
    44    23    24 1   
    45    23    67 1   
    46    24    25 2   
    47    24    26 1   
    48    26    27 1   
    49    26    68 1   
    50    27    28 1   
    51    27    69 1   
    52    27    70 1   
    53    28    29 ar  
    54    28    33 ar  
    55    29    30 ar  
    56    29    71 1   
    57    30    31 ar  
    58    30    72 1   
    59    31    32 ar  
    60    31    34 1   
    61    32    33 ar  
    62    32    73 1   
    63    33    74 1   
    64    34    35 1   
    65    34    41 1   
    66    35    36 ar  
    67    35    40 ar  
    68    36    37 ar  
    69    36    75 1   
    70    37    38 ar  
    71    37    76 1   
    72    38    39 ar  
    73    38    77 1   
    74    39    40 ar  
    75    39    78 1   
    76    40    79 1   
    77    41    42 ar  
    78    41    48 ar  
    79    42    43 ar  
    80    42    80 1   
    81    43    44 ar  
    82    43    81 1   
    83    44    45 1   
    84    44    47 ar  
    85    45    46 1   
    86    45    82 1   
    87    45    83 1   
    88    46    84 1   
    89    47    48 ar  
    90    47    85 1   
    91    48    86 1   
    92    49    50 ar  
    93    49    87 1   
    94    50    88 1   
@<TRIPOS>SUBSTRUCTURE
     1 120         1 TEMP              0 ****  ****    0 ROOT
