@<TRIPOS>MOLECULE
11
   76    82     1     0     0
SMALL
bcc


@<TRIPOS>ATOM
      1 C1           5.5090     0.3520     1.6590 C          1 11       -0.227950
      2 C2           4.8750     1.5190     1.8520 C          1 11        0.028125
      3 N1           3.5180     1.6200     2.1410 N          1 11       -0.527200
      4 C3           2.7820     0.4450     2.2660 C          1 11        0.028125
      5 C4           3.3010    -0.7790     2.0970 C          1 11       -0.227950
      6 C5           4.7680    -0.9780     1.7410 C          1 11        0.035700
      7 C6           4.9770    -1.8380     0.4500 C          1 11        0.035700
      8 C7           4.3440    -1.2150    -0.7850 C          1 11       -0.227950
      9 C8           3.3800    -1.8500    -1.4670 C          1 11        0.028125
     10 N2           2.8990    -3.1110    -1.1260 N          1 11       -0.527200
     11 C9           3.5130    -3.7920    -0.0800 C          1 11        0.028125
     12 C10          4.4940    -3.2670     0.6690 C          1 11       -0.227950
     13 C11          1.6930    -3.6600    -1.7770 C          1 11        0.250600
     14 C12          0.4480    -3.4550    -0.9330 C          1 11       -0.117300
     15 C13          0.1100    -2.1850    -0.4470 C          1 11       -0.118500
     16 C14         -1.0470    -1.9930     0.3100 C          1 11       -0.118500
     17 C15         -1.9110    -3.0620     0.5870 C          1 11       -0.117300
     18 C16         -1.5760    -4.3330     0.0990 C          1 11       -0.118500
     19 C17         -0.4130    -4.5260    -0.6560 C          1 11       -0.118500
     20 C18         -3.1560    -2.8600     1.4300 C          1 11        0.250600
     21 N3          -3.9890    -1.7500     0.9280 N          1 11       -0.527200
     22 C19         -3.9030    -0.4820     1.4960 C          1 11        0.028125
     23 C20         -4.4800     0.6070     0.9680 C          1 11       -0.227950
     24 C21         -5.2700     0.5320    -0.3290 C          1 11        0.035700
     25 C22         -5.4310    -0.9070    -0.8060 C          1 11       -0.227950
     26 C23         -4.7950    -1.9170    -0.1940 C          1 11        0.028125
     27 C24         -4.6670     1.4270    -1.4630 C          1 11        0.035700
     28 C25         -4.7770     2.9100    -1.1290 C          1 11       -0.227950
     29 C26         -3.7010     3.7130    -1.1450 C          1 11        0.028125
     30 N4          -2.4190     3.2760    -1.4640 N          1 11       -0.527200
     31 C27         -2.2470     1.9400    -1.8140 C          1 11        0.028125
     32 C28         -3.2420     1.0420    -1.8350 C          1 11       -0.227950
     33 C29         -1.2830     4.2160    -1.5130 C          1 11        0.250600
     34 C30         -0.2070     3.8750    -0.5030 C          1 11       -0.117300
     35 C31         -0.5010     3.8210     0.8670 C          1 11       -0.118500
     36 C32          0.4940     3.5160     1.7980 C          1 11       -0.118500
     37 C33          1.8070     3.2540     1.3800 C          1 11       -0.117300
     38 C34          2.1030     3.3140     0.0110 C          1 11       -0.118500
     39 C35          1.1070     3.6220    -0.9200 C          1 11       -0.118500
     40 C36          2.8860     2.9300     2.3920 C          1 11        0.250600
     41 H1           6.5730     0.3360     1.4480 H          1 11        0.136250
     42 H2           5.4080     2.4630     1.7940 H          1 11        0.138750
     43 H3           1.7310     0.5790     2.5070 H          1 11        0.138750
     44 H4           2.6690    -1.6540     2.1990 H          1 11        0.136250
     45 H5           5.2200    -1.5230     2.5820 H          1 11        0.048200
     46 H6           6.0560    -1.9050     0.2510 H          1 11        0.048200
     47 H7           4.6630    -0.2240    -1.0870 H          1 11        0.136250
     48 H8           2.9000    -1.3860    -2.3240 H          1 11        0.138750
     49 H9           3.1340    -4.7930     0.1030 H          1 11        0.138750
     50 H10          4.9390    -3.8460     1.4720 H          1 11        0.136250
     51 H11          1.5290    -3.1970    -2.7580 H          1 11        0.061700
     52 H12          1.8480    -4.7300    -1.9710 H          1 11        0.061700
     53 H13          0.7510    -1.3280    -0.6410 H          1 11        0.136750
     54 H14         -1.2710    -0.9920     0.6720 H          1 11        0.136750
     55 H15         -2.2200    -5.1860     0.3010 H          1 11        0.136750
     56 H16         -0.1840    -5.5240    -1.0240 H          1 11        0.136750
     57 H17         -3.7570    -3.7780     1.4450 H          1 11        0.061700
     58 H18         -2.8490    -2.6830     2.4690 H          1 11        0.061700
     59 H19         -3.3050    -0.4180     2.4000 H          1 11        0.138750
     60 H20         -4.3610     1.5740     1.4460 H          1 11        0.136250
     61 H21         -6.2830     0.8960    -0.1040 H          1 11        0.048200
     62 H22         -6.0470    -1.0970    -1.6780 H          1 11        0.136250
     63 H23         -4.8690    -2.9380    -0.5590 H          1 11        0.138750
     64 H24         -5.2760     1.2760    -2.3660 H          1 11        0.048200
     65 H25         -5.7540     3.3110    -0.8840 H          1 11        0.136250
     66 H26         -3.7850     4.7690    -0.9080 H          1 11        0.138750
     67 H27         -1.2300     1.6540    -2.0690 H          1 11        0.138750
     68 H28         -3.0370     0.0130    -2.1090 H          1 11        0.136250
     69 H29         -1.6100     5.2470    -1.3260 H          1 11        0.061700
     70 H30         -0.8680     4.2130    -2.5300 H          1 11        0.061700
     71 H31         -1.5180     4.0010     1.2100 H          1 11        0.136750
     72 H32          0.2320     3.4710     2.8520 H          1 11        0.136750
     73 H33          3.1120     3.1010    -0.3360 H          1 11        0.136750
     74 H34          1.3660     3.6490    -1.9760 H          1 11        0.136750
     75 H35          3.6270     3.7410     2.3700 H          1 11        0.061700
     76 H36          2.4710     2.9310     3.4080 H          1 11        0.061700
@<TRIPOS>BOND
     1     1     2 2   
     2     1     6 1   
     3     1    41 1   
     4     2     3 1   
     5     2    42 1   
     6     3     4 1   
     7     3    40 1   
     8     4     5 2   
     9     4    43 1   
    10     5     6 1   
    11     5    44 1   
    12     6     7 1   
    13     6    45 1   
    14     7     8 1   
    15     7    12 1   
    16     7    46 1   
    17     8     9 2   
    18     8    47 1   
    19     9    10 1   
    20     9    48 1   
    21    10    11 1   
    22    10    13 1   
    23    11    12 2   
    24    11    49 1   
    25    12    50 1   
    26    13    14 1   
    27    13    51 1   
    28    13    52 1   
    29    14    15 ar  
    30    14    19 ar  
    31    15    16 ar  
    32    15    53 1   
    33    16    17 ar  
    34    16    54 1   
    35    17    18 ar  
    36    17    20 1   
    37    18    19 ar  
    38    18    55 1   
    39    19    56 1   
    40    20    21 1   
    41    20    57 1   
    42    20    58 1   
    43    21    22 1   
    44    21    26 1   
    45    22    23 2   
    46    22    59 1   
    47    23    24 1   
    48    23    60 1   
    49    24    25 1   
    50    24    27 1   
    51    24    61 1   
    52    25    26 2   
    53    25    62 1   
    54    26    63 1   
    55    27    28 1   
    56    27    32 1   
    57    27    64 1   
    58    28    29 2   
    59    28    65 1   
    60    29    30 1   
    61    29    66 1   
    62    30    31 1   
    63    30    33 1   
    64    31    32 2   
    65    31    67 1   
    66    32    68 1   
    67    33    34 1   
    68    33    69 1   
    69    33    70 1   
    70    34    35 ar  
    71    34    39 ar  
    72    35    36 ar  
    73    35    71 1   
    74    36    37 ar  
    75    36    72 1   
    76    37    38 ar  
    77    37    40 1   
    78    38    39 ar  
    79    38    73 1   
    80    39    74 1   
    81    40    75 1   
    82    40    76 1   
@<TRIPOS>SUBSTRUCTURE
     1 11          1 TEMP              0 ****  ****    0 ROOT
