@<TRIPOS>MOLECULE
7QR
  116   118     1     0     0
SMALL
bcc


@<TRIPOS>ATOM
      1 H54          2.8720    -3.6270    -3.2870 H          0 7QR       0.044756
      2 C30          3.0490    -2.9030    -2.4570 C          0 7QR      -0.106517
      3 H52          2.2160    -2.9930    -1.7180 H          0 7QR       0.044756
      4 H53          4.0030    -3.1780    -1.9500 H          0 7QR       0.044756
      5 C27          3.1180    -1.4770    -3.0340 C          0 7QR       0.103400
      6 C28          1.9170    -1.3290    -3.9900 C          0 7QR      -0.106517
      7 H46          2.0190    -2.0720    -4.8170 H          0 7QR       0.044756
      8 H47          1.8870    -0.3050    -4.4340 H          0 7QR       0.044756
      9 H48          0.9570    -1.5300    -3.4580 H          0 7QR       0.044756
     10 C29          4.3830    -1.3850    -3.9070 C          0 7QR      -0.106517
     11 H49          4.3090    -2.1460    -4.7220 H          0 7QR       0.044756
     12 H50          4.4730    -0.3740    -4.3680 H          0 7QR       0.044756
     13 H51          5.3040    -1.6000    -3.3140 H          0 7QR       0.044756
     14 N6           3.0950    -0.4070    -2.0150 N           0 7QR      -0.436800
     15 C26          4.3280    -0.0960    -1.3210 C          0 7QR       0.043000
     16 H44          5.0520     0.2780    -2.1000 H          0 7QR       0.063575
     17 H45          4.1030     0.7690    -0.6320 H          0 7QR       0.063575
     18 C25          5.0040    -1.2300    -0.5090 C          0 7QR       0.043000
     19 H42          4.2070    -1.8180     0.0370 H          0 7QR       0.063575
     20 H43          5.4770    -1.9560    -1.2300 H          0 7QR       0.063575
     21 N5           6.0070    -0.8130     0.4340 N           0 7QR      -0.436800
     22 C21          7.3770    -0.5190    -0.0350 C          0 7QR       0.103400
     23 C22          8.4210    -1.2100     0.8650 C          0 7QR      -0.106517
     24 H33          8.3750    -0.8130     1.9080 H          0 7QR       0.044756
     25 H34          8.2480    -2.3120     0.8890 H          0 7QR       0.044756
     26 H35          9.4380    -1.0130     0.4520 H          0 7QR       0.044756
     27 C23          7.6740     0.9920    -0.0410 C          0 7QR      -0.106517
     28 H36          7.5970     1.4120     0.9910 H          0 7QR       0.044756
     29 H37          6.9590     1.5300    -0.7090 H          0 7QR       0.044756
     30 H38          8.7110     1.1610    -0.4160 H          0 7QR       0.044756
     31 C24          7.6480    -1.0270    -1.4640 C          0 7QR      -0.106517
     32 H39          8.7030    -0.7740    -1.7300 H          0 7QR       0.044756
     33 H40          6.9770    -0.5370    -2.2080 H          0 7QR       0.044756
     34 H41          7.5320    -2.1350    -1.5280 H          0 7QR       0.044756
     35 C20          5.6150    -0.2440     1.6740 C           0 7QR       0.750350
     36 O2           6.4710     0.0970     2.5310 O           0 7QR      -0.662100
     37 N4           4.2640    -0.0700     1.9900 N           0 7QR      -0.544150
     38 H32          3.5400    -0.4050     1.3960 H          0 7QR       0.335250
     39 C19          3.9350     0.2630     3.3540 C          0 7QR       0.139550
     40 H30          4.4280    -0.4780     4.0550 H          0 7QR       0.062825
     41 H31          4.3890     1.2740     3.5800 H          0 7QR       0.062825
     42 C17          2.4660     0.2880     3.6560 C          0 7QR      -0.113050
     43 C16          1.9780     1.2660     4.5330 C          0 7QR      -0.111500
     44 H28          2.6640     2.0170     4.9520 H          0 7QR       0.135000
     45 C15          0.6280     1.2890     4.8760 C          0 7QR      -0.133000
     46 H27          0.2530     2.0570     5.5690 H          0 7QR       0.134000
     47 C14         -0.2500     0.3500     4.3370 C          0 7QR      -0.111500
     48 H26         -1.3180     0.3790     4.6010 H          0 7QR       0.135000
     49 C13          0.2290    -0.6240     3.4600 C          0 7QR      -0.113050
     50 C18          1.5870    -0.6590     3.1260 C          0 7QR      -0.108500
     51 H29          1.9470    -1.4390     2.4340 H          0 7QR       0.157000
     52 C12         -0.7050    -1.6370     2.8550 C          0 7QR       0.139550
     53 H24         -1.7210    -1.5420     3.3330 H          0 7QR       0.062825
     54 H25         -0.3110    -2.6710     3.0910 H          0 7QR       0.062825
     55 N3          -0.7970    -1.5130     1.4250 N           0 7QR      -0.544150
     56 H23          0.0640    -1.3450     0.9370 H          0 7QR       0.335250
     57 C11         -1.9540    -1.3150     0.6990 C           0 7QR       0.750350
     58 O1          -1.8350    -0.9470    -0.5010 O           0 7QR      -0.662100
     59 N2          -3.2510    -1.5130     1.3220 N           0 7QR      -0.436800
     60 C7          -3.7430    -2.9060     1.2710 C          0 7QR       0.103400
     61 C8          -3.6690    -3.5340    -0.1320 C          0 7QR      -0.106517
     62 H14         -2.6150    -3.5380    -0.5030 H          0 7QR       0.044756
     63 H15         -4.2940    -2.9690    -0.8630 H          0 7QR       0.044756
     64 H16         -4.0380    -4.5860    -0.0860 H          0 7QR       0.044756
     65 C9          -5.1980    -3.0150     1.7630 C          0 7QR      -0.106517
     66 H17         -5.9080    -2.5130     1.0640 H          0 7QR       0.044756
     67 H18         -5.3080    -2.5670     2.7790 H          0 7QR       0.044756
     68 H19         -5.4750    -4.0950     1.8190 H          0 7QR       0.044756
     69 C10         -2.9110    -3.8080     2.2060 C          0 7QR      -0.106517
     70 H20         -3.3730    -4.8250     2.2270 H          0 7QR       0.044756
     71 H21         -2.9010    -3.4020     3.2440 H          0 7QR       0.044756
     72 H22         -1.8630    -3.9120     1.8410 H          0 7QR       0.044756
     73 C6          -4.1810    -0.4380     1.0420 C          0 7QR       0.043000
     74 H12         -4.9740    -0.4880     1.8400 H          0 7QR       0.063575
     75 H13         -3.6140     0.5280     1.1840 H          0 7QR       0.063575
     76 C5          -4.8480    -0.4080    -0.3570 C          0 7QR       0.043000
     77 H10         -4.0210    -0.4400    -1.1270 H          0 7QR       0.063575
     78 H11         -5.4670    -1.3380    -0.4940 H          0 7QR       0.063575
     79 N1          -5.6600     0.7850    -0.5560 N           0 7QR      -0.436800
     80 C2          -7.1000     0.6810    -0.2300 C          0 7QR       0.103400
     81 C1          -7.8490    -0.4280    -0.9880 C          0 7QR      -0.106517
     82 H1          -7.6870    -0.3320    -2.0890 H          0 7QR       0.044756
     83 H2          -7.5130    -1.4400    -0.6580 H          0 7QR       0.044756
     84 H3          -8.9410    -0.3410    -0.7760 H          0 7QR       0.044756
     85 C3          -7.2980     0.4190     1.2730 C          0 7QR      -0.106517
     86 H4          -8.3820     0.5330     1.5160 H          0 7QR       0.044756
     87 H5          -6.7160     1.1420     1.8900 H          0 7QR       0.044756
     88 H6          -6.9910    -0.6220     1.5370 H          0 7QR       0.044756
     89 C4          -7.8060     2.0130    -0.5530 C          0 7QR      -0.106517
     90 H7          -7.8010     2.2040    -1.6530 H          0 7QR       0.044756
     91 H8          -7.3090     2.8630    -0.0290 H          0 7QR       0.044756
     92 H9          -8.8670     1.9560    -0.2100 H          0 7QR       0.044756
     93 C40         -5.4280     1.3700    -1.8720 C           0 7QR       0.750350
     94 O4          -5.9880     0.9560    -2.9160 O           0 7QR      -0.662100
     95 N8          -4.5820     2.4580    -1.9900 N           0 7QR      -0.544150
     96 H64         -4.4440     2.7940    -2.9170 H          0 7QR       0.335250
     97 C39         -3.7680     3.0310    -0.9570 C          0 7QR       0.139550
     98 H62         -4.2240     4.0210    -0.6550 H          0 7QR       0.062825
     99 H63         -3.7590     2.3710    -0.0420 H          0 7QR       0.062825
    100 C37         -2.3450     3.2570    -1.3940 C          0 7QR      -0.113050
    101 C36         -1.8330     4.5550    -1.4840 C          0 7QR      -0.111500
    102 H60         -2.4720     5.4180    -1.2420 H          0 7QR       0.135000
    103 C35         -0.5110     4.7570    -1.8790 C          0 7QR      -0.133000
    104 H59         -0.1090     5.7780    -1.9460 H          0 7QR       0.134000
    105 C34          0.3030     3.6690    -2.1910 C          0 7QR      -0.111500
    106 H58          1.3450     3.8330    -2.5020 H          0 7QR       0.135000
    107 C33         -0.2070     2.3700    -2.1080 C          0 7QR      -0.113050
    108 C38         -1.5290     2.1650    -1.7030 C          0 7QR      -0.108500
    109 H61         -1.9300     1.1380    -1.6250 H          0 7QR       0.157000
    110 C32          0.6530     1.1930    -2.4820 C          0 7QR       0.139550
    111 H56          1.6560     1.5580    -2.8440 H          0 7QR       0.062825
    112 H57          0.1480     0.6580    -3.3440 H          0 7QR       0.062825
    113 N7           0.8220     0.2680    -1.3950 N           0 7QR      -0.544150
    114 H55          0.0350     0.1290    -0.7910 H          0 7QR       0.335250
    115 C31          1.9480    -0.4720    -1.1210 C           0 7QR       0.750350
    116 O3           1.9570    -1.1620    -0.0630 O           0 7QR      -0.662100
@<TRIPOS>BOND
     1     1     2 1   
     2     2     3 1   
     3     2     4 1   
     4     2     5 1   
     5     5     6 1   
     6     5    10 1   
     7     5    14 1   
     8     6     7 1   
     9     6     8 1   
    10     6     9 1   
    11    10    11 1   
    12    10    12 1   
    13    10    13 1   
    14    14    15 1   
    15    14   115 1   
    16    15    16 1   
    17    15    17 1   
    18    15    18 1   
    19    18    19 1   
    20    18    20 1   
    21    18    21 1   
    22    21    22 1   
    23    21    35 1   
    24    22    23 1   
    25    22    27 1   
    26    22    31 1   
    27    23    24 1   
    28    23    25 1   
    29    23    26 1   
    30    27    28 1   
    31    27    29 1   
    32    27    30 1   
    33    31    32 1   
    34    31    33 1   
    35    31    34 1   
    36    35    36 2   
    37    35    37 1   
    38    37    38 1   
    39    37    39 1   
    40    39    40 1   
    41    39    41 1   
    42    39    42 1   
    43    42    43 ar  
    44    42    50 ar  
    45    43    44 1   
    46    43    45 ar  
    47    45    46 1   
    48    45    47 ar  
    49    47    48 1   
    50    47    49 ar  
    51    49    50 ar  
    52    49    52 1   
    53    50    51 1   
    54    52    53 1   
    55    52    54 1   
    56    52    55 1   
    57    55    56 1   
    58    55    57 1   
    59    57    58 2   
    60    57    59 1   
    61    59    60 1   
    62    59    73 1   
    63    60    61 1   
    64    60    65 1   
    65    60    69 1   
    66    61    62 1   
    67    61    63 1   
    68    61    64 1   
    69    65    66 1   
    70    65    67 1   
    71    65    68 1   
    72    69    70 1   
    73    69    71 1   
    74    69    72 1   
    75    73    74 1   
    76    73    75 1   
    77    73    76 1   
    78    76    77 1   
    79    76    78 1   
    80    76    79 1   
    81    79    80 1   
    82    79    93 1   
    83    80    81 1   
    84    80    85 1   
    85    80    89 1   
    86    81    82 1   
    87    81    83 1   
    88    81    84 1   
    89    85    86 1   
    90    85    87 1   
    91    85    88 1   
    92    89    90 1   
    93    89    91 1   
    94    89    92 1   
    95    93    94 2   
    96    93    95 1   
    97    95    96 1   
    98    95    97 1   
    99    97    98 1   
   100    97    99 1   
   101    97   100 1   
   102   100   101 ar  
   103   100   108 ar  
   104   101   102 1   
   105   101   103 ar  
   106   103   104 1   
   107   103   105 ar  
   108   105   106 1   
   109   105   107 ar  
   110   107   108 ar  
   111   107   110 1   
   112   108   109 1   
   113   110   111 1   
   114   110   112 1   
   115   110   113 1   
   116   113   114 1   
   117   113   115 1   
   118   115   116 2   
@<TRIPOS>SUBSTRUCTURE
     1 7QR         1 TEMP              0 ****  ****    0 ROOT
