@<TRIPOS>MOLECULE
195
  160   164     1     0     0
SMALL
bcc


@<TRIPOS>ATOM
      1 C           13.8210     2.3400    -1.4170 C          0 195      -0.089600
      2 C1          13.4150     1.6070    -0.1370 C          0 195      -0.017400
      3 C2          13.8400     2.4310     1.0800 C          0 195      -0.089600
      4 C3          11.9200     1.4190    -0.1190 C          0 195      -0.129300
      5 C4          11.3910     0.1490    -0.0690 C          0 195      -0.046375
      6 C5          10.0000    -0.0430    -0.0500 C          0 195      -0.222025
      7 C6           9.1540     1.0680    -0.0700 C          0 195       0.204850
      8 O            7.8100     0.8980    -0.0320 O          0 195      -0.510100
      9 C7           9.6950     2.3570    -0.1300 C          0 195      -0.222025
     10 C8          11.0910     2.5180    -0.1470 C          0 195      -0.046375
     11 C9           8.8780     3.5650    -0.1790 C          0 195       0.490675
     12 N            7.6030     3.6600     0.0660 N          0 195      -0.630150
     13 C10          7.0820     5.0330    -0.1010 C          0 195       0.096175
     14 C11          5.5830     5.0890     0.2030 C          0 195       0.138425
     15 N1           5.1740     6.5010     0.2200 N          0 195      -0.816200
     16 C12          3.7050     6.5600     0.1720 C          0 195       0.138425
     17 C13          3.2890     8.0240     0.0270 C          0 195       0.096175
     18 N2           1.8240     8.1810     0.0590 N          0 195      -0.630150
     19 C14          1.4270     9.4160     0.0220 C          0 195       0.490675
     20 C15          0.0490     9.9010     0.0200 C          0 195      -0.222025
     21 C16         -0.1400    11.2940     0.0540 C          0 195      -0.046375
     22 C17         -1.4100    11.8250     0.0420 C          0 195      -0.129300
     23 C18         -2.5090    10.9990    -0.0100 C          0 195      -0.046375
     24 C19         -2.3530     9.6050    -0.0390 C          0 195      -0.222025
     25 C20         -3.5590     8.7890    -0.1180 C          0 195       0.490675
     26 N3          -3.6510     7.5010     0.0500 N          0 195      -0.630150
     27 C21         -5.0230     6.9830    -0.1250 C          0 195       0.096175
     28 C22         -5.0800     5.4790     0.1460 C          0 195       0.138425
     29 N4          -6.4930     5.0750     0.1730 N          0 195      -0.816200
     30 C23         -6.5600     3.6090     0.0880 C          0 195       0.138425
     31 C24         -8.0280     3.2070    -0.0600 C          0 195       0.096175
     32 N5          -8.1940     1.7430    -0.0400 N          0 195      -0.630150
     33 C25         -9.4300     1.3480    -0.0710 C          0 195       0.490675
     34 C26         -9.9140    -0.0300    -0.0790 C          0 195      -0.222025
     35 C27         -9.0670    -1.1420    -0.1090 C          0 195       0.204850
     36 O1          -7.7230    -0.9700    -0.1090 O          0 195      -0.510100
     37 C28         -9.6070    -2.4330    -0.1390 C          0 195      -0.222025
     38 C29        -11.0010    -2.5950    -0.1180 C          0 195      -0.046375
     39 C30        -11.8310    -1.4960    -0.0730 C          0 195      -0.129300
     40 C31        -11.3050    -0.2260    -0.0550 C          0 195      -0.046375
     41 C32        -13.3260    -1.6870    -0.0440 C          0 195      -0.017400
     42 C33        -13.8950    -1.0670     1.2340 C          0 195      -0.089600
     43 C34        -13.9510    -1.0070    -1.2640 C          0 195      -0.089600
     44 C35         -8.7880    -3.6380    -0.2010 C          0 195       0.490675
     45 N6          -7.5000    -3.7210    -0.0310 N          0 195      -0.630150
     46 C36         -6.9780    -5.0940    -0.1840 C          0 195       0.096175
     47 C37         -5.4770    -5.1470     0.1070 C          0 195       0.138425
     48 N7          -5.0720    -6.5600     0.1500 N          0 195      -0.816200
     49 C38         -3.6040    -6.6270     0.0910 C          0 195       0.138425
     50 C39         -3.1980    -8.0990     0.0080 C          0 195       0.096175
     51 N8          -1.7330    -8.2600     0.0200 N          0 195      -0.630150
     52 C40         -1.3370    -9.4950     0.0110 C          0 195       0.490675
     53 C41          0.0420    -9.9780     0.0040 C          0 195      -0.222025
     54 C42          1.1540    -9.1330    -0.0430 C          0 195       0.204850
     55 O2           0.9820    -7.7890    -0.0610 O          0 195      -0.510100
     56 C43          2.4430    -9.6720    -0.0710 C          0 195      -0.222025
     57 C44          2.6050   -11.0670    -0.0310 C          0 195      -0.046375
     58 C45          1.5070   -11.8960     0.0320 C          0 195      -0.129300
     59 C46          0.2370   -11.3690     0.0490 C          0 195      -0.046375
     60 C47          1.6980   -13.3900     0.0820 C          0 195      -0.017400
     61 C48          1.0830   -13.9390     1.3710 C          0 195      -0.089600
     62 C49          1.0120   -14.0330    -1.1250 C          0 195      -0.089600
     63 C50          3.6480    -8.8530    -0.1500 C          0 195       0.490675
     64 N9           3.7400    -7.5690     0.0500 N          0 195      -0.630150
     65 C51          5.1090    -7.0470    -0.1360 C          0 195       0.096175
     66 C52          5.1790    -5.5590     0.2090 C          0 195       0.138425
     67 N10          6.5950    -5.1590     0.2440 N          0 195      -0.816200
     68 C53          6.6600    -3.6910     0.1760 C          0 195       0.138425
     69 C54          8.1220    -3.2830    -0.0000 C          0 195       0.096175
     70 N11          8.2830    -1.8160     0.0410 N          0 195      -0.630150
     71 C55          9.5160    -1.4230    -0.0370 C          0 195       0.490675
     72 C56         -1.0640     9.0580    -0.0170 C          0 195       0.204850
     73 O3          -0.8970     7.7130    -0.0310 O          0 195      -0.510100
     74 C57         -1.5970    13.3200     0.0870 C          0 195      -0.017400
     75 C58         -2.3470    13.7780    -1.1650 C          0 195      -0.089600
     76 C59         -2.4040    13.6960     1.3320 C          0 195      -0.089600
     77 H           14.9020     2.4760    -1.4300 H          0 195       0.037033
     78 H1          13.5180     1.7530    -2.2840 H          0 195       0.037033
     79 H2          13.3320     3.3140    -1.4490 H          0 195       0.037033
     80 H3          13.9040     0.6330    -0.1050 H          0 195       0.051200
     81 H4          13.3510     3.4050     1.0480 H          0 195       0.037033
     82 H5          13.5510     1.9090     1.9920 H          0 195       0.037033
     83 H6          14.9210     2.5670     1.0670 H          0 195       0.037033
     84 H7          12.0510    -0.7050    -0.0430 H          0 195       0.146125
     85 H8           7.5550     0.8960     0.9010 H          0 195       0.464750
     86 H9          11.5170     3.5100    -0.1890 H          0 195       0.146125
     87 H10          9.3860     4.4790    -0.4470 H          0 195      -0.014825
     88 H11          7.6100     5.7020     0.5770 H          0 195       0.063200
     89 H12          7.2510     5.3580    -1.1280 H          0 195       0.063200
     90 H13          5.0300     4.5550    -0.5700 H          0 195       0.045012
     91 H14          5.3880     4.6380     1.1760 H          0 195       0.045012
     92 H15          5.4500     6.8730     1.1160 H          0 195       0.358800
     93 H16          3.3420     5.9890    -0.6820 H          0 195       0.045012
     94 H17          3.2910     6.1500     1.0930 H          0 195       0.045012
     95 H18          3.7250     8.6000     0.8430 H          0 195       0.063200
     96 H19          3.6670     8.4090    -0.9200 H          0 195       0.063200
     97 H20          2.2020    10.1680    -0.0100 H          0 195      -0.014825
     98 H21          0.7170    11.9510     0.0890 H          0 195       0.146125
     99 H22         -3.5010    11.4280    -0.0270 H          0 195       0.146125
    100 H23         -4.4780     9.3110    -0.3410 H          0 195      -0.014825
    101 H24         -5.6910     7.4970     0.5660 H          0 195       0.063200
    102 H25         -5.3500     7.1760    -1.1470 H          0 195       0.063200
    103 H26         -4.5590     4.9420    -0.6470 H          0 195       0.045012
    104 H27         -4.6150     5.2600     1.1070 H          0 195       0.045012
    105 H28         -6.8490     5.3290     1.0820 H          0 195       0.358800
    106 H29         -5.9950     3.2650    -0.7780 H          0 195       0.045012
    107 H30         -6.1480     3.1680     0.9960 H          0 195       0.045012
    108 H31         -8.6010     3.6410     0.7590 H          0 195       0.063200
    109 H32         -8.4100     3.5960    -1.0040 H          0 195       0.063200
    110 H33        -10.1820     2.1230    -0.0920 H          0 195      -0.014825
    111 H34         -7.4430    -0.9580     0.8160 H          0 195       0.464750
    112 H35        -11.4260    -3.5870    -0.1370 H          0 195       0.146125
    113 H36        -11.9660     0.6280    -0.0210 H          0 195       0.146125
    114 H37        -13.5560    -2.7530    -0.0640 H          0 195       0.051200
    115 H38        -13.6650    -0.0020     1.2540 H          0 195       0.037033
    116 H39        -14.9760    -1.2050     1.2550 H          0 195       0.037033
    117 H40        -13.4500    -1.5510     2.1030 H          0 195       0.037033
    118 H41        -13.7210     0.0580    -1.2430 H          0 195       0.037033
    119 H42        -13.5460    -1.4490    -2.1740 H          0 195       0.037033
    120 H43        -15.0320    -1.1460    -1.2430 H          0 195       0.037033
    121 H44         -9.3070    -4.5620    -0.4100 H          0 195      -0.014825
    122 H45         -7.5000    -5.7540     0.5080 H          0 195       0.063200
    123 H46         -7.1560    -5.4330    -1.2040 H          0 195       0.063200
    124 H47         -4.9300    -4.6310    -0.6820 H          0 195       0.045012
    125 H48         -5.2710    -4.6760     1.0680 H          0 195       0.045012
    126 H49         -5.3420    -6.9120     1.0560 H          0 195       0.358800
    127 H50         -3.2470    -6.0970    -0.7920 H          0 195       0.045012
    128 H51         -3.1790    -6.1780     0.9880 H          0 195       0.045012
    129 H52         -3.6220    -8.6330     0.8580 H          0 195       0.063200
    130 H53         -3.5950    -8.5260    -0.9130 H          0 195       0.063200
    131 H54         -2.1110   -10.2490     0.0080 H          0 195      -0.014825
    132 H55          0.9730    -7.4960     0.8610 H          0 195       0.464750
    133 H56          3.5980   -11.4920    -0.0490 H          0 195       0.146125
    134 H57         -0.6170   -12.0290     0.0950 H          0 195       0.146125
    135 H58          2.7630   -13.6200     0.0610 H          0 195       0.051200
    136 H59          0.0180   -13.7080     1.3930 H          0 195       0.037033
    137 H60          1.2210   -15.0200     1.4080 H          0 195       0.037033
    138 H61          1.5710   -13.4810     2.2310 H          0 195       0.037033
    139 H62         -0.0530   -13.8020    -1.1030 H          0 195       0.037033
    140 H63          1.4510   -13.6420    -2.0430 H          0 195       0.037033
    141 H64          1.1510   -15.1140    -1.0880 H          0 195       0.037033
    142 H65          4.5640    -9.3670    -0.4010 H          0 195      -0.014825
    143 H66          5.7930    -7.5970     0.5110 H          0 195       0.063200
    144 H67          5.4090    -7.1880    -1.1740 H          0 195       0.063200
    145 H68          4.6530    -4.9800    -0.5500 H          0 195       0.045012
    146 H69          4.7250    -5.3860     1.1840 H          0 195       0.045012
    147 H70          6.9480    -5.4230     1.1510 H          0 195       0.358800
    148 H71          6.0750    -3.3360    -0.6730 H          0 195       0.045012
    149 H72          6.2670    -3.2630     1.0980 H          0 195       0.045012
    150 H73          8.7150    -3.7290     0.7980 H          0 195       0.063200
    151 H74          8.4830    -3.6540    -0.9590 H          0 195       0.063200
    152 H75         10.2660    -2.1980    -0.1020 H          0 195      -0.014825
    153 H76         -0.8410     7.4480    -0.9590 H          0 195       0.464750
    154 H77         -0.6220    13.8070     0.1260 H          0 195       0.051200
    155 H78         -3.3210    13.2910    -1.2030 H          0 195       0.037033
    156 H79         -2.4830    14.8590    -1.1320 H          0 195       0.037033
    157 H80         -1.7720    13.5100    -2.0510 H          0 195       0.037033
    158 H81         -3.3780    13.2080     1.2930 H          0 195       0.037033
    159 H82         -1.8700    13.3690     2.2240 H          0 195       0.037033
    160 H83         -2.5400    14.7770     1.3640 H          0 195       0.037033
@<TRIPOS>BOND
     1     1     2 1   
     2     1    77 1   
     3     1    78 1   
     4     1    79 1   
     5     2     3 1   
     6     2     4 1   
     7     2    80 1   
     8     3    81 1   
     9     3    82 1   
    10     3    83 1   
    11     4     5 ar  
    12     4    10 ar  
    13     5     6 ar  
    14     5    84 1   
    15     6     7 ar  
    16     6    71 1   
    17     7     8 1   
    18     7     9 ar  
    19     8    85 1   
    20     9    10 ar  
    21     9    11 1   
    22    10    86 1   
    23    11    12 2   
    24    11    87 1   
    25    12    13 1   
    26    13    14 1   
    27    13    88 1   
    28    13    89 1   
    29    14    15 1   
    30    14    90 1   
    31    14    91 1   
    32    15    16 1   
    33    15    92 1   
    34    16    17 1   
    35    16    93 1   
    36    16    94 1   
    37    17    18 1   
    38    17    95 1   
    39    17    96 1   
    40    18    19 2   
    41    19    20 1   
    42    19    97 1   
    43    20    21 ar  
    44    20    72 ar  
    45    21    22 ar  
    46    21    98 1   
    47    22    23 ar  
    48    22    74 1   
    49    23    24 ar  
    50    23    99 1   
    51    24    25 1   
    52    24    72 ar  
    53    25    26 2   
    54    25   100 1   
    55    26    27 1   
    56    27    28 1   
    57    27   101 1   
    58    27   102 1   
    59    28    29 1   
    60    28   103 1   
    61    28   104 1   
    62    29    30 1   
    63    29   105 1   
    64    30    31 1   
    65    30   106 1   
    66    30   107 1   
    67    31    32 1   
    68    31   108 1   
    69    31   109 1   
    70    32    33 2   
    71    33    34 1   
    72    33   110 1   
    73    34    35 ar  
    74    34    40 ar  
    75    35    36 1   
    76    35    37 ar  
    77    36   111 1   
    78    37    38 ar  
    79    37    44 1   
    80    38    39 ar  
    81    38   112 1   
    82    39    40 ar  
    83    39    41 1   
    84    40   113 1   
    85    41    42 1   
    86    41    43 1   
    87    41   114 1   
    88    42   115 1   
    89    42   116 1   
    90    42   117 1   
    91    43   118 1   
    92    43   119 1   
    93    43   120 1   
    94    44    45 2   
    95    44   121 1   
    96    45    46 1   
    97    46    47 1   
    98    46   122 1   
    99    46   123 1   
   100    47    48 1   
   101    47   124 1   
   102    47   125 1   
   103    48    49 1   
   104    48   126 1   
   105    49    50 1   
   106    49   127 1   
   107    49   128 1   
   108    50    51 1   
   109    50   129 1   
   110    50   130 1   
   111    51    52 2   
   112    52    53 1   
   113    52   131 1   
   114    53    54 ar  
   115    53    59 ar  
   116    54    55 1   
   117    54    56 ar  
   118    55   132 1   
   119    56    57 ar  
   120    56    63 1   
   121    57    58 ar  
   122    57   133 1   
   123    58    59 ar  
   124    58    60 1   
   125    59   134 1   
   126    60    61 1   
   127    60    62 1   
   128    60   135 1   
   129    61   136 1   
   130    61   137 1   
   131    61   138 1   
   132    62   139 1   
   133    62   140 1   
   134    62   141 1   
   135    63    64 2   
   136    63   142 1   
   137    64    65 1   
   138    65    66 1   
   139    65   143 1   
   140    65   144 1   
   141    66    67 1   
   142    66   145 1   
   143    66   146 1   
   144    67    68 1   
   145    67   147 1   
   146    68    69 1   
   147    68   148 1   
   148    68   149 1   
   149    69    70 1   
   150    69   150 1   
   151    69   151 1   
   152    70    71 2   
   153    71   152 1   
   154    72    73 1   
   155    73   153 1   
   156    74    75 1   
   157    74    76 1   
   158    74   154 1   
   159    75   155 1   
   160    75   156 1   
   161    75   157 1   
   162    76   158 1   
   163    76   159 1   
   164    76   160 1   
@<TRIPOS>SUBSTRUCTURE
     1 195         1 TEMP              0 ****  ****    0 ROOT
