@<TRIPOS>MOLECULE
33
  120   135     1     0     0
SMALL
bcc


@<TRIPOS>ATOM
      1 O1          -2.4240    -5.0380    -0.7810 O           1 33       -0.587500
      2 C1          -1.6860    -4.6160     0.1040 C           1 33        0.713433
      3 C2          -0.2990    -4.1890    -0.2200 C          1 33       -0.116100
      4 C3           0.1220    -4.1460    -1.4980 C          1 33       -0.062167
      5 C4           1.4690    -3.7180    -1.8410 C          1 33       -0.062167
      6 C5           2.3500    -3.3380    -0.8950 C          1 33       -0.116100
      7 C6           3.7210    -2.9020    -1.2740 C           1 33        0.713433
      8 O2           4.0860    -2.9820    -2.4430 O           1 33       -0.587500
      9 N1           4.5090    -2.4230    -0.2220 N           1 33       -0.486400
     10 C7           4.1850    -2.5460     1.1370 C           1 33        0.713433
     11 O3           4.9610    -2.2970     2.0550 O           1 33       -0.587500
     12 C8           2.8260    -3.0100     1.4990 C          1 33       -0.116100
     13 C9           2.4280    -3.0830     2.8420 C          1 33       -0.062167
     14 C10          1.1400    -3.5200     3.1730 C          1 33       -0.062167
     15 C11          0.2370    -3.8780     2.1630 C          1 33       -0.116100
     16 C12         -1.1300    -4.3400     2.4980 C           1 33        0.713433
     17 O4          -1.3800    -4.5750     3.6770 O           1 33       -0.587500
     18 N2          -2.0480    -4.5040     1.4470 N           1 33       -0.486400
     19 C13         -3.4350    -4.8550     1.8350 C          1 33        0.087033
     20 C14         -3.6570    -6.3850     1.8220 C          1 33       -0.092400
     21 C15         -5.1320    -6.7840     1.7230 C          1 33       -0.078067
     22 C16         -6.0530    -5.7420     2.3450 C          1 33       -0.078067
     23 C17         -5.9410    -4.3810     1.6510 C          1 33       -0.092400
     24 C18         -4.5520    -4.1250     1.0220 C          1 33        0.087033
     25 N3          -4.3180    -2.6790     0.7980 N           1 33       -0.486400
     26 C19         -4.0390    -1.8630     1.8920 C           1 33        0.713433
     27 O5          -4.0160    -2.2470     3.0560 O           1 33       -0.587500
     28 C20         -3.7630    -0.4340     1.6210 C          1 33       -0.116100
     29 C21         -3.3430     0.3980     2.6650 C          1 33       -0.062167
     30 C22         -3.0660     1.7400     2.4170 C          1 33       -0.062167
     31 C23         -3.2070     2.2590     1.1230 C          1 33       -0.116100
     32 C24         -2.9000     3.6850     0.8730 C           1 33        0.713433
     33 O6          -2.6020     4.3860     1.8340 O           1 33       -0.587500
     34 N4          -2.9710     4.1360    -0.4480 N           1 33       -0.486400
     35 C25         -3.4770     3.3680    -1.4980 C           1 33        0.713433
     36 O7          -3.6850     3.7930    -2.6290 O           1 33       -0.587500
     37 C26         -3.7860     1.9470    -1.2170 C          1 33       -0.116100
     38 C27         -4.2320     1.1180    -2.2550 C          1 33       -0.062167
     39 C28         -4.5210    -0.2230    -2.0040 C          1 33       -0.062167
     40 C29         -4.3600    -0.7440    -0.7150 C          1 33       -0.116100
     41 C30         -4.6640    -2.1710    -0.4570 C           1 33        0.713433
     42 O8          -5.2180    -2.8180    -1.3400 O           1 33       -0.587500
     43 C31         -3.9160     0.0720     0.3280 C          1 33       -0.010000
     44 C32         -3.6300     1.4400     0.0740 C          1 33       -0.010000
     45 C33         -2.6040     5.5530    -0.7020 C          1 33        0.087033
     46 C34         -3.8400     6.4190    -1.0190 C          1 33       -0.092400
     47 C35         -3.4570     7.8830    -1.2270 C          1 33       -0.078067
     48 C36         -2.3930     8.0410    -2.3090 C          1 33       -0.078067
     49 C37         -1.1490     7.2070    -2.0080 C          1 33       -0.092400
     50 C38         -1.5020     5.7210    -1.7980 C          1 33        0.087033
     51 N5          -0.2920     4.8980    -1.5510 N           1 33       -0.486400
     52 C39          0.2500     4.2210    -2.6460 C           1 33        0.713433
     53 O9          -0.1690     4.3110    -3.7960 O           1 33       -0.587500
     54 C40          1.4150     3.3420    -2.3900 C          1 33       -0.116100
     55 C41          1.9290     2.5530    -3.4260 C          1 33       -0.062167
     56 C42          3.0070     1.7020    -3.1860 C          1 33       -0.062167
     57 C43          3.5680     1.6280    -1.9050 C          1 33       -0.116100
     58 C44          4.7080     0.7190    -1.6570 C           1 33        0.713433
     59 O10          5.2630     0.2070    -2.6220 O           1 33       -0.587500
     60 N6           5.0860     0.5200    -0.3300 N           1 33       -0.486400
     61 C45          4.7190     1.3940     0.6970 C           1 33        0.713433
     62 O11          5.2500     1.4280     1.8030 O           1 33       -0.587500
     63 C46          3.6200     2.3460     0.4170 C          1 33       -0.116100
     64 C47          3.1320     3.1660     1.4430 C          1 33       -0.062167
     65 C48          2.0800     4.0460     1.1920 C          1 33       -0.062167
     66 C49          1.5040     4.1020    -0.0830 C          1 33       -0.116100
     67 C50          0.3850     5.0360    -0.3400 C           1 33        0.713433
     68 O12          0.1300     5.8840     0.5080 O           1 33       -0.587500
     69 C51          1.9790     3.2900    -1.1130 C          1 33       -0.010000
     70 C52          3.0630     2.4080    -0.8630 C          1 33       -0.010000
     71 C53          6.1450    -0.4730    -0.0220 C          1 33        0.087033
     72 C54          7.5350     0.0200    -0.4690 C          1 33       -0.092400
     73 C55          8.6290    -0.9770    -0.0940 C          1 33       -0.078067
     74 C56          8.3430    -2.3700    -0.6480 C          1 33       -0.078067
     75 C57          6.9750    -2.8880    -0.2060 C          1 33       -0.092400
     76 C58          5.8530    -1.9020    -0.5860 C          1 33        0.087033
     77 C59          0.6310    -3.8010     0.8360 C          1 33       -0.010000
     78 C60          1.9320    -3.3730     0.5030 C          1 33       -0.010000
     79 H1          -0.5320    -4.4290    -2.3220 H          1 33        0.175167
     80 H2           1.7350    -3.7180    -2.8960 H          1 33        0.175167
     81 H3           3.1200    -2.8050     3.6370 H          1 33        0.175167
     82 H4           0.8450    -3.5800     4.2200 H          1 33        0.175167
     83 H5          -3.5620    -4.5540     2.8810 H          1 33        0.119033
     84 H6          -3.2270    -6.8040     2.7410 H          1 33        0.059200
     85 H7          -3.1120    -6.8650     1.0010 H          1 33        0.059200
     86 H8          -5.2810    -7.7560     2.2060 H          1 33        0.048200
     87 H9          -5.4020    -6.9160     0.6670 H          1 33        0.048200
     88 H10         -5.8010    -5.6290     3.4070 H          1 33        0.048200
     89 H11         -7.0930    -6.0860     2.3080 H          1 33        0.048200
     90 H12         -6.6970    -4.3140     0.8570 H          1 33        0.059200
     91 H13         -6.2060    -3.6010     2.3730 H          1 33        0.059200
     92 H14         -4.5870    -4.6010     0.0350 H          1 33        0.119033
     93 H15         -3.2310     0.0050     3.6760 H          1 33        0.175167
     94 H16         -2.7420     2.3800     3.2370 H          1 33        0.175167
     95 H17         -4.3590     1.5120    -3.2630 H          1 33        0.175167
     96 H18         -4.8710    -0.8580    -2.8170 H          1 33        0.175167
     97 H19         -2.2050     5.9650     0.2300 H          1 33        0.119033
     98 H20         -4.3530     6.0590    -1.9170 H          1 33        0.059200
     99 H21         -4.5630     6.3450    -0.1980 H          1 33        0.059200
    100 H22         -3.0850     8.3020    -0.2840 H          1 33        0.048200
    101 H23         -4.3480     8.4590    -1.5020 H          1 33        0.048200
    102 H24         -2.8090     7.7390    -3.2780 H          1 33        0.048200
    103 H25         -2.1130     9.0970    -2.3980 H          1 33        0.048200
    104 H26         -0.4360     7.3060    -2.8350 H          1 33        0.059200
    105 H27         -0.6530     7.6190    -1.1220 H          1 33        0.059200
    106 H28         -1.9330     5.3870    -2.7470 H          1 33        0.119033
    107 H29          1.4940     2.5980    -4.4240 H          1 33        0.175167
    108 H30          3.4040     1.0950    -3.9990 H          1 33        0.175167
    109 H31          3.5690     3.1230     2.4400 H          1 33        0.175167
    110 H32          1.7100     4.6830     1.9950 H          1 33        0.175167
    111 H33          6.2030    -0.5560     1.0690 H          1 33        0.119033
    112 H34          7.7530     0.9900    -0.0050 H          1 33        0.059200
    113 H35          7.5590     0.1840    -1.5520 H          1 33        0.059200
    114 H36          8.7170    -1.0300     0.9980 H          1 33        0.048200
    115 H37          9.5940    -0.6230    -0.4750 H          1 33        0.048200
    116 H38          8.3870    -2.3440    -1.7440 H          1 33        0.048200
    117 H39          9.1230    -3.0650    -0.3150 H          1 33        0.048200
    118 H40          6.7870    -3.8620    -0.6720 H          1 33        0.059200
    119 H41          6.9970    -3.0620     0.8760 H          1 33        0.059200
    120 H42          5.8980    -1.8350    -1.6770 H          1 33        0.119033
@<TRIPOS>BOND
     1     1     2 2   
     2     2     3 1   
     3     2    18 1   
     4     3     4 ar  
     5     3    77 ar  
     6     4     5 ar  
     7     4    79 1   
     8     5     6 ar  
     9     5    80 1   
    10     6     7 1   
    11     6    78 ar  
    12     7     8 2   
    13     7     9 1   
    14     9    10 1   
    15     9    76 1   
    16    10    11 2   
    17    10    12 1   
    18    12    13 ar  
    19    12    78 ar  
    20    13    14 ar  
    21    13    81 1   
    22    14    15 ar  
    23    14    82 1   
    24    15    16 1   
    25    15    77 ar  
    26    16    17 2   
    27    16    18 1   
    28    18    19 1   
    29    19    20 1   
    30    19    24 1   
    31    19    83 1   
    32    20    21 1   
    33    20    84 1   
    34    20    85 1   
    35    21    22 1   
    36    21    86 1   
    37    21    87 1   
    38    22    23 1   
    39    22    88 1   
    40    22    89 1   
    41    23    24 1   
    42    23    90 1   
    43    23    91 1   
    44    24    25 1   
    45    24    92 1   
    46    25    26 1   
    47    25    41 1   
    48    26    27 2   
    49    26    28 1   
    50    28    29 ar  
    51    28    43 ar  
    52    29    30 ar  
    53    29    93 1   
    54    30    31 ar  
    55    30    94 1   
    56    31    32 1   
    57    31    44 ar  
    58    32    33 2   
    59    32    34 1   
    60    34    35 1   
    61    34    45 1   
    62    35    36 2   
    63    35    37 1   
    64    37    38 ar  
    65    37    44 ar  
    66    38    39 ar  
    67    38    95 1   
    68    39    40 ar  
    69    39    96 1   
    70    40    41 1   
    71    40    43 ar  
    72    41    42 2   
    73    43    44 ar  
    74    45    46 1   
    75    45    50 1   
    76    45    97 1   
    77    46    47 1   
    78    46    98 1   
    79    46    99 1   
    80    47    48 1   
    81    47   100 1   
    82    47   101 1   
    83    48    49 1   
    84    48   102 1   
    85    48   103 1   
    86    49    50 1   
    87    49   104 1   
    88    49   105 1   
    89    50    51 1   
    90    50   106 1   
    91    51    52 1   
    92    51    67 1   
    93    52    53 2   
    94    52    54 1   
    95    54    55 ar  
    96    54    69 ar  
    97    55    56 ar  
    98    55   107 1   
    99    56    57 ar  
   100    56   108 1   
   101    57    58 1   
   102    57    70 ar  
   103    58    59 2   
   104    58    60 1   
   105    60    61 1   
   106    60    71 1   
   107    61    62 2   
   108    61    63 1   
   109    63    64 ar  
   110    63    70 ar  
   111    64    65 ar  
   112    64   109 1   
   113    65    66 ar  
   114    65   110 1   
   115    66    67 1   
   116    66    69 ar  
   117    67    68 2   
   118    69    70 ar  
   119    71    72 1   
   120    71    76 1   
   121    71   111 1   
   122    72    73 1   
   123    72   112 1   
   124    72   113 1   
   125    73    74 1   
   126    73   114 1   
   127    73   115 1   
   128    74    75 1   
   129    74   116 1   
   130    74   117 1   
   131    75    76 1   
   132    75   118 1   
   133    75   119 1   
   134    76   120 1   
   135    77    78 ar  
@<TRIPOS>SUBSTRUCTURE
     1 33          1 TEMP              0 ****  ****    0 ROOT
