@<TRIPOS>MOLECULE
150
   72    78     1     0     0
SMALL
bcc


@<TRIPOS>ATOM
      1 C           -4.7890     2.9920    -0.0940 C          0 150       0.074600
      2 C1          -4.8880     1.4810    -0.0590 C          0 150      -0.116300
      3 C2          -4.9120     0.8200     1.1540 C          0 150      -0.115500
      4 C3          -4.9550    -0.5620     1.1880 C          0 150      -0.115500
      5 C4          -4.9690    -1.2820     0.0070 C          0 150      -0.116300
      6 C5          -4.9500    -2.7910     0.0410 C          0 150       0.074600
      7 N           -3.5360    -3.1970     0.0510 N          0 150      -0.126100
      8 C6          -2.9020    -3.2790     1.2070 C          0 150      -0.082800
      9 C7          -1.5460    -3.5400     1.2520 C          0 150      -0.169500
     10 C8          -0.8440    -3.7020     0.0510 C          0 150      -0.044000
     11 C9          -1.5870    -3.7520    -1.1360 C          0 150      -0.169500
     12 C10         -2.9410    -3.4820    -1.0920 C          0 150      -0.082800
     13 C11          0.6390    -3.6570     0.0220 C          0 150      -0.044000
     14 C12          1.3730    -3.4440     1.1950 C          0 150      -0.169500
     15 C13          2.7380    -3.2700     1.1110 C          0 150      -0.082800
     16 N1           3.3530    -3.3280    -0.0540 N          0 150      -0.126100
     17 C14          4.7870    -2.9900    -0.1040 C          0 150       0.074600
     18 C15          4.8870    -1.4840    -0.0590 C          0 150      -0.116300
     19 C16          4.9400    -0.8240     1.1540 C          0 150      -0.115500
     20 C17          4.9800     0.5590     1.1900 C          0 150      -0.115500
     21 C18          4.9700     1.2780     0.0100 C          0 150      -0.116300
     22 C19          4.9490     2.7930     0.0440 C          0 150       0.074600
     23 N2           3.5390     3.1970     0.0430 N          0 150      -0.126100
     24 C20          2.9050     3.3140     1.1970 C          0 150      -0.082800
     25 C21          1.5500     3.5760     1.2370 C          0 150      -0.169500
     26 C22          0.8460     3.7040     0.0350 C          0 150      -0.044000
     27 C23          1.5860     3.7210    -1.1530 C          0 150      -0.169500
     28 C24          2.9410     3.4500    -1.1070 C          0 150      -0.082800
     29 C25         -0.6420     3.6570     0.0110 C          0 150      -0.044000
     30 C26         -1.3530     3.7920    -1.1840 C          0 150      -0.169500
     31 C27         -2.7220     3.6040    -1.1720 C          0 150      -0.082800
     32 N3          -3.3580     3.3270    -0.0510 N          0 150      -0.126100
     33 C28         -2.7450     3.3070     1.1170 C          0 150      -0.082800
     34 C29         -1.3720     3.4630     1.1870 C          0 150      -0.169500
     35 C30          4.9530     0.6190    -1.2050 C          0 150      -0.115500
     36 C31          4.9120    -0.7630    -1.2380 C          0 150      -0.115500
     37 C32          2.7220    -3.6420    -1.1650 C          0 150      -0.082800
     38 C33          1.3510    -3.8140    -1.1730 C          0 150      -0.169500
     39 C34         -4.9750    -0.6180    -1.2080 C          0 150      -0.115500
     40 C35         -4.9360     0.7640    -1.2380 C          0 150      -0.115500
     41 H           -5.2330     3.3730    -1.0140 H          0 150       0.061700
     42 H1          -5.2980     3.4190     0.7700 H          0 150       0.061700
     43 H2          -4.8980     1.3820     2.0760 H          0 150       0.136500
     44 H3          -4.9770    -1.0790     2.1360 H          0 150       0.136500
     45 H4          -5.4470    -3.1500     0.9420 H          0 150       0.061700
     46 H5          -5.4460    -3.1910    -0.8430 H          0 150       0.061700
     47 H6          -3.4500    -3.1400     2.1270 H          0 150       0.141000
     48 H7          -1.0340    -3.6170     2.2000 H          0 150       0.134000
     49 H8          -1.1080    -3.9970    -2.0720 H          0 150       0.134000
     50 H9          -3.5200    -3.5050    -2.0030 H          0 150       0.141000
     51 H10          0.8750    -3.4150     2.1530 H          0 150       0.134000
     52 H11          3.3100    -3.0850     2.0090 H          0 150       0.141000
     53 H12          5.3020    -3.4230     0.7540 H          0 150       0.061700
     54 H13          5.2250    -3.3640    -1.0290 H          0 150       0.061700
     55 H14          4.9490    -1.3880     2.0750 H          0 150       0.136500
     56 H15          5.0190     1.0750     2.1380 H          0 150       0.136500
     57 H16          5.4390     3.1520     0.9490 H          0 150       0.061700
     58 H17          5.4510     3.1930    -0.8370 H          0 150       0.061700
     59 H18          3.4550     3.2040     2.1200 H          0 150       0.141000
     60 H19          1.0400     3.6800     2.1840 H          0 150       0.134000
     61 H20          1.1040     3.9420    -2.0940 H          0 150       0.134000
     62 H21          3.5160     3.4460    -2.0200 H          0 150       0.141000
     63 H22         -0.8410     4.0390    -2.1020 H          0 150       0.134000
     64 H23         -3.2790     3.6850    -2.0940 H          0 150       0.141000
     65 H24         -3.3180     3.1680     2.0220 H          0 150       0.141000
     66 H25         -0.8680     3.4360     2.1420 H          0 150       0.134000
     67 H26          4.9710     1.1820    -2.1270 H          0 150       0.136500
     68 H27          4.9010    -1.2790    -2.1860 H          0 150       0.136500
     69 H28          3.2820    -3.7670    -2.0800 H          0 150       0.141000
     70 H29          0.8360    -4.0660    -2.0890 H          0 150       0.134000
     71 H30         -5.0090    -1.1780    -2.1300 H          0 150       0.136500
     72 H31         -4.9430     1.2840    -2.1850 H          0 150       0.136500
@<TRIPOS>BOND
     1     1     2 1   
     2     1    32 1   
     3     1    41 1   
     4     1    42 1   
     5     2     3 ar  
     6     2    40 ar  
     7     3     4 ar  
     8     3    43 1   
     9     4     5 ar  
    10     4    44 1   
    11     5     6 1   
    12     5    39 ar  
    13     6     7 1   
    14     6    45 1   
    15     6    46 1   
    16     7     8 1   
    17     7    12 1   
    18     8     9 2   
    19     8    47 1   
    20     9    10 1   
    21     9    48 1   
    22    10    11 1   
    23    10    13 2   
    24    11    12 2   
    25    11    49 1   
    26    12    50 1   
    27    13    14 1   
    28    13    38 1   
    29    14    15 2   
    30    14    51 1   
    31    15    16 1   
    32    15    52 1   
    33    16    17 1   
    34    16    37 1   
    35    17    18 1   
    36    17    53 1   
    37    17    54 1   
    38    18    19 ar  
    39    18    36 ar  
    40    19    20 ar  
    41    19    55 1   
    42    20    21 ar  
    43    20    56 1   
    44    21    22 1   
    45    21    35 ar  
    46    22    23 1   
    47    22    57 1   
    48    22    58 1   
    49    23    24 1   
    50    23    28 1   
    51    24    25 2   
    52    24    59 1   
    53    25    26 1   
    54    25    60 1   
    55    26    27 1   
    56    26    29 2   
    57    27    28 2   
    58    27    61 1   
    59    28    62 1   
    60    29    30 1   
    61    29    34 1   
    62    30    31 2   
    63    30    63 1   
    64    31    32 1   
    65    31    64 1   
    66    32    33 1   
    67    33    34 2   
    68    33    65 1   
    69    34    66 1   
    70    35    36 ar  
    71    35    67 1   
    72    36    68 1   
    73    37    38 2   
    74    37    69 1   
    75    38    70 1   
    76    39    40 ar  
    77    39    71 1   
    78    40    72 1   
@<TRIPOS>SUBSTRUCTURE
     1 150         1 TEMP              0 ****  ****    0 ROOT
