@<TRIPOS>MOLECULE
130
   95    99     1     0     0
SMALL
bcc


@<TRIPOS>ATOM
      1 O1           3.5420     5.7590     0.9290 O           1 130      -0.608100
      2 C1           2.7510     4.9480     1.4150 C           1 130       0.566600
      3 N1           3.0800     3.6130     1.3770 N           1 130      -0.550900
      4 C2           2.4870     2.4930     2.0910 C          1 130       0.093000
      5 C3           1.9520     1.4370     1.1260 C          1 130      -0.100900
      6 C4           3.0840     0.6070     0.5070 C          1 130       0.158300
      7 N2           2.5410    -0.4810    -0.3380 N          1 130      -0.728600
      8 C5           2.2980     0.0330    -1.7050 C          1 130       0.144800
      9 C6           1.6670    -0.9520    -2.7110 C          1 130       0.084250
     10 N3           1.3460    -0.2820    -3.9670 N           1 130      -0.548900
     11 C7           0.9230    -0.9070    -5.1200 C           1 130       0.570600
     12 O2           1.1580    -0.3840    -6.2080 O           1 130      -0.607100
     13 C8           0.2200    -2.2190    -5.0630 C          1 130       0.359050
     14 C9           0.5690    -3.1880    -5.9980 C          1 130      -0.176550
     15 C10         -0.1140    -4.3980    -5.9810 C          1 130      -0.108000
     16 C11         -1.1370    -4.5800    -5.0570 C          1 130      -0.176550
     17 C12         -1.4480    -3.5390    -4.1820 C          1 130       0.359050
     18 N4          -0.7710    -2.3640    -4.1460 N          1 130      -0.639000
     19 C13         -2.5920    -3.7450    -3.2390 C           1 130       0.570600
     20 O3          -2.8980    -4.8870    -2.8940 O           1 130      -0.607100
     21 N5          -3.3490    -2.7010    -2.7650 N           1 130      -0.548900
     22 C14         -3.2750    -1.2770    -3.0530 C          1 130       0.084250
     23 C15         -2.3370    -0.4780    -2.1200 C          1 130       0.144800
     24 N6          -2.8390    -0.2250    -0.7490 N          1 130      -0.728600
     25 C16         -1.9990     0.7610    -0.0370 C          1 130       0.158300
     26 C17         -2.2680     2.1940    -0.5250 C          1 130      -0.100900
     27 C18         -1.5980     3.2450     0.3580 C          1 130       0.093000
     28 N7          -2.2110     3.3330     1.6710 N           1 130      -0.550900
     29 C19         -1.9530     4.2720     2.6450 C           1 130       0.566600
     30 O4          -2.7710     4.4140     3.5560 O           1 130      -0.608100
     31 C20         -0.7300     5.1350     2.6050 C          1 130       0.363800
     32 C21         -0.7880     6.3780     3.2320 C          1 130      -0.179300
     33 C22          0.3450     7.1820     3.2290 C          1 130      -0.106000
     34 C23          1.5040     6.7100     2.6230 C          1 130      -0.179300
     35 C24          1.4890     5.4410     2.0470 C          1 130       0.363800
     36 N8           0.3870     4.6480     2.0060 N          1 130      -0.638000
     37 C25         -3.0080    -1.4470     0.0620 C          1 130       0.144800
     38 C26         -1.7890    -2.3830     0.2330 C          1 130       0.084250
     39 N9          -2.1480    -3.5670     1.0090 N           1 130      -0.548900
     40 C27         -2.2150    -3.6390     2.3840 C           1 130       0.570600
     41 O5          -3.0420    -4.3750     2.9190 O           1 130      -0.607100
     42 C28         -1.2740    -2.8380     3.2210 C          1 130       0.359050
     43 C29         -1.7000    -2.3590     4.4560 C          1 130      -0.176550
     44 C30         -0.7980    -1.6360     5.2330 C          1 130      -0.108000
     45 C31          0.4970    -1.4330     4.7630 C          1 130      -0.176550
     46 C32          0.8400    -1.9710     3.5290 C          1 130       0.359050
     47 N10         -0.0180    -2.6700     2.7400 N          1 130      -0.639000
     48 C33          2.2270    -1.7970     2.9870 C           1 130       0.570600
     49 O6           3.0470    -1.0860     3.5560 O           1 130      -0.607100
     50 N11          2.4640    -2.4870     1.8170 N           1 130      -0.548900
     51 C34          3.6750    -2.3400     1.0350 C          1 130       0.084250
     52 C35          3.4290    -1.6640    -0.3380 C          1 130       0.144800
     53 H1           3.9920     3.4630     0.9620 H          1 130       0.316000
     54 H2           1.6950     2.8310     2.7610 H          1 130       0.058450
     55 H3           3.2710     2.0730     2.7300 H          1 130       0.058450
     56 H4           1.3620     1.9170     0.3400 H          1 130       0.061700
     57 H5           1.2800     0.7700     1.6790 H          1 130       0.061700
     58 H6           3.7710     1.2430    -0.0650 H          1 130       0.041700
     59 H7           3.6810     0.2120     1.3330 H          1 130       0.041700
     60 H8           3.2360     0.4070    -2.1370 H          1 130       0.046700
     61 H9           1.6240     0.8970    -1.6420 H          1 130       0.046700
     62 H10          2.3580    -1.7660    -2.9530 H          1 130       0.060325
     63 H11          0.7580    -1.3920    -2.2960 H          1 130       0.060325
     64 H12          1.8800     0.5490    -4.1940 H          1 130       0.322500
     65 H13          1.3530    -3.0010    -6.7260 H          1 130       0.171250
     66 H14          0.1350    -5.1840    -6.6890 H          1 130       0.153000
     67 H15         -1.6990    -5.5100    -5.0330 H          1 130       0.171250
     68 H16         -4.1290    -3.0100    -2.1990 H          1 130       0.322500
     69 H17         -2.9680    -1.1440    -4.0950 H          1 130       0.060325
     70 H18         -4.2950    -0.8830    -2.9740 H          1 130       0.060325
     71 H19         -2.1970     0.4850    -2.6220 H          1 130       0.046700
     72 H20         -1.3520    -0.9450    -2.0750 H          1 130       0.046700
     73 H21         -2.2320     0.7260     1.0340 H          1 130       0.041700
     74 H22         -0.9330     0.5170    -0.1330 H          1 130       0.041700
     75 H23         -3.3490     2.3800    -0.5560 H          1 130       0.061700
     76 H24         -1.8880     2.3190    -1.5440 H          1 130       0.061700
     77 H25         -1.6800     4.2320    -0.1110 H          1 130       0.058450
     78 H26         -0.5400     3.0110     0.4750 H          1 130       0.058450
     79 H27         -3.1310     2.9220     1.7900 H          1 130       0.316000
     80 H28         -1.7030     6.7140     3.7110 H          1 130       0.169000
     81 H29          0.3280     8.1610     3.6990 H          1 130       0.152000
     82 H30          2.4060     7.3140     2.6090 H          1 130       0.169000
     83 H31         -3.8510    -2.0200    -0.3370 H          1 130       0.046700
     84 H32         -3.3650    -1.1570     1.0610 H          1 130       0.046700
     85 H33         -1.4320    -2.7550    -0.7300 H          1 130       0.060325
     86 H34         -0.9690    -1.8390     0.7040 H          1 130       0.060325
     87 H35         -2.7990    -4.2040     0.5630 H          1 130       0.322500
     88 H36         -2.7110    -2.5470     4.8040 H          1 130       0.171250
     89 H37         -1.0990    -1.2420     6.2000 H          1 130       0.153000
     90 H38          1.2240    -0.8800     5.3500 H          1 130       0.171250
     91 H39          1.6630    -2.9670     1.4140 H          1 130       0.322500
     92 H40          4.4290    -1.7920     1.6090 H          1 130       0.060325
     93 H41          4.0670    -3.3500     0.8690 H          1 130       0.060325
     94 H42          4.3970    -1.4250    -0.7960 H          1 130       0.046700
     95 H43          2.9640    -2.4390    -0.9590 H          1 130       0.046700
@<TRIPOS>BOND
     1     1     2 2   
     2     2     3 1   
     3     2    35 1   
     4     3     4 1   
     5     3    53 1   
     6     4     5 1   
     7     4    54 1   
     8     4    55 1   
     9     5     6 1   
    10     5    56 1   
    11     5    57 1   
    12     6     7 1   
    13     6    58 1   
    14     6    59 1   
    15     7     8 1   
    16     7    52 1   
    17     8     9 1   
    18     8    60 1   
    19     8    61 1   
    20     9    10 1   
    21     9    62 1   
    22     9    63 1   
    23    10    11 1   
    24    10    64 1   
    25    11    12 2   
    26    11    13 1   
    27    13    14 ar  
    28    13    18 ar  
    29    14    15 ar  
    30    14    65 1   
    31    15    16 ar  
    32    15    66 1   
    33    16    17 ar  
    34    16    67 1   
    35    17    18 ar  
    36    17    19 1   
    37    19    20 2   
    38    19    21 1   
    39    21    22 1   
    40    21    68 1   
    41    22    23 1   
    42    22    69 1   
    43    22    70 1   
    44    23    24 1   
    45    23    71 1   
    46    23    72 1   
    47    24    25 1   
    48    24    37 1   
    49    25    26 1   
    50    25    73 1   
    51    25    74 1   
    52    26    27 1   
    53    26    75 1   
    54    26    76 1   
    55    27    28 1   
    56    27    77 1   
    57    27    78 1   
    58    28    29 1   
    59    28    79 1   
    60    29    30 2   
    61    29    31 1   
    62    31    32 ar  
    63    31    36 ar  
    64    32    33 ar  
    65    32    80 1   
    66    33    34 ar  
    67    33    81 1   
    68    34    35 ar  
    69    34    82 1   
    70    35    36 ar  
    71    37    38 1   
    72    37    83 1   
    73    37    84 1   
    74    38    39 1   
    75    38    85 1   
    76    38    86 1   
    77    39    40 1   
    78    39    87 1   
    79    40    41 2   
    80    40    42 1   
    81    42    43 ar  
    82    42    47 ar  
    83    43    44 ar  
    84    43    88 1   
    85    44    45 ar  
    86    44    89 1   
    87    45    46 ar  
    88    45    90 1   
    89    46    47 ar  
    90    46    48 1   
    91    48    49 2   
    92    48    50 1   
    93    50    51 1   
    94    50    91 1   
    95    51    52 1   
    96    51    92 1   
    97    51    93 1   
    98    52    94 1   
    99    52    95 1   
@<TRIPOS>SUBSTRUCTURE
     1 130         1 TEMP              0 ****  ****    0 ROOT
