@<TRIPOS>MOLECULE
168
  140   147     1     0     0
SMALL
bcc


@<TRIPOS>ATOM
      1 C            5.4220    -0.7990    -2.5240 C          0 168      -0.085767
      2 C1           4.4100    -1.3250    -3.5440 C          0 168      -0.006700
      3 C2           4.8060    -0.8560    -4.9450 C          0 168      -0.085767
      4 C3           4.3930    -2.8540    -3.5030 C          0 168      -0.085767
      5 C4           3.0380    -0.7980    -3.2070 C          0 168      -0.075300
      6 C5           2.8100     0.5660    -3.1820 C          0 168      -0.109750
      7 C6           1.5550     1.0500    -2.8700 C          0 168      -0.094050
      8 C7           0.5190     0.1690    -2.5980 C          0 168       0.123600
      9 O           -0.7210     0.6440    -2.3110 O          0 168      -0.538600
     10 C8           0.7510    -1.1990    -2.6210 C          0 168      -0.094050
     11 C9          -0.3670    -2.1640    -2.3120 C          0 168       0.011950
     12 C10         -0.0120    -2.9340    -1.0610 C          0 168      -0.079550
     13 C11          0.5760    -4.1790    -1.1670 C          0 168      -0.118750
     14 C12          0.9210    -4.8800    -0.0260 C          0 168      -0.063800
     15 C13          0.6900    -4.3290     1.2220 C          0 168      -0.118750
     16 C14          0.1020    -3.0850     1.3280 C          0 168      -0.079550
     17 C15         -0.2800    -2.3960     0.1870 C          0 168       0.094100
     18 O1          -0.9410    -1.2130     0.2960 O          0 168      -0.365900
     19 C16         -2.1950    -1.3730    -0.3700 C          0 168       0.103900
     20 C17         -3.2360    -1.9260     0.6050 C          0 168       0.098400
     21 O2          -4.3090    -0.9920     0.7320 O          0 168      -0.331400
     22 C18         -5.4630    -1.6610     0.4840 C          0 168       0.119600
     23 C19         -5.4770    -3.0450     0.5090 C          0 168      -0.182000
     24 C20         -6.6540    -3.7340     0.2830 C          0 168      -0.106000
     25 C21         -7.8280    -3.0480     0.0300 C          0 168      -0.151000
     26 C22         -7.8320    -1.6690    -0.0110 C          0 168      -0.104500
     27 C23         -6.6460    -0.9610     0.2020 C          0 168      -0.062300
     28 C24         -6.6520     0.5110     0.1420 C          0 168      -0.098200
     29 C25         -5.5390     1.1970    -0.1400 C          0 168      -0.098200
     30 C26         -5.5360     2.6700    -0.1650 C          0 168      -0.062300
     31 C27         -6.6490     3.3940     0.2590 C          0 168      -0.104500
     32 C28         -6.6200     4.7730     0.2390 C          0 168      -0.151000
     33 C29         -5.4930     5.4420    -0.2060 C          0 168      -0.106000
     34 C30         -4.3880     4.7340    -0.6430 C          0 168      -0.182000
     35 C31         -4.4000     3.3510    -0.6330 C          0 168       0.119600
     36 O3          -3.3320     2.6460    -1.0840 O          0 168      -0.331400
     37 C32         -2.1780     3.4740    -0.9370 C          0 168       0.098400
     38 C33         -1.2520     2.8780     0.1230 C          0 168       0.103900
     39 O4          -0.2580     2.0610    -0.4990 O          0 168      -0.365900
     40 C34          0.9340     2.6880    -0.3210 C          0 168       0.094100
     41 C35          1.3990     2.9590     0.9560 C          0 168      -0.079550
     42 C36          0.6300     2.4800     2.1620 C          0 168       0.011950
     43 C37          1.1420     1.1160     2.5520 C          0 168      -0.094050
     44 C38          0.3150     0.0070     2.4570 C          0 168       0.123600
     45 O5          -0.9640     0.1470     2.0210 O          0 168      -0.538600
     46 C39          0.7960    -1.2470     2.8080 C          0 168      -0.094050
     47 C40         -0.0970    -2.4570     2.6870 C          0 168       0.011950
     48 C41          2.0940    -1.3870     3.2590 C          0 168      -0.109750
     49 C42          2.9160    -0.2790     3.3550 C          0 168      -0.075300
     50 C43          2.4410     0.9710     3.0020 C          0 168      -0.109750
     51 C44          4.3320    -0.4340     3.8470 C          0 168      -0.006700
     52 C45          5.0940    -1.3810     2.9180 C          0 168      -0.085767
     53 C46          5.0200     0.9320     3.8590 C          0 168      -0.085767
     54 C47          4.3190    -1.0100     5.2650 C          0 168      -0.085767
     55 C48          2.5730     3.6670     1.1270 C          0 168      -0.118750
     56 C49          3.3110     4.0640     0.0260 C          0 168      -0.063800
     57 C50          2.8880     3.7270    -1.2460 C          0 168      -0.118750
     58 C51          1.7180     3.0160    -1.4180 C          0 168      -0.079550
     59 C52          1.3190     2.5410    -2.7950 C          0 168       0.011950
     60 C53          4.5740     4.8640     0.2140 C          0 168      -0.008700
     61 C54          5.5680     4.0580     1.0540 C          0 168      -0.086100
     62 C55          5.1920     5.1700    -1.1510 C          0 168      -0.086100
     63 C56          4.2460     6.1750     0.9320 C          0 168      -0.086100
     64 C57          1.5490    -6.2450    -0.1420 C          0 168      -0.008700
     65 C58          2.8610    -6.1380    -0.9210 C          0 168      -0.086100
     66 C59          1.8300    -6.7980     1.2570 C          0 168      -0.086100
     67 C60          0.5930    -7.1860    -0.8790 C          0 168      -0.086100
     68 C61          2.0100    -1.6790    -2.9310 C          0 168      -0.109750
     69 H            5.4340     0.2910    -2.5530 H          0 168       0.036311
     70 H1           5.1390    -1.1330    -1.5260 H          0 168       0.036311
     71 H2           6.4140    -1.1790    -2.7670 H          0 168       0.036311
     72 H3           5.7980    -1.2370    -5.1880 H          0 168       0.036311
     73 H4           4.0850    -1.2300    -5.6710 H          0 168       0.036311
     74 H5           4.8180     0.2340    -4.9740 H          0 168       0.036311
     75 H6           4.1100    -3.1880    -2.5050 H          0 168       0.036311
     76 H7           3.6710    -3.2290    -4.2300 H          0 168       0.036311
     77 H8           5.3850    -3.2350    -3.7460 H          0 168       0.036311
     78 H9           3.6130     1.2520    -3.4050 H          0 168       0.131000
     79 H10         -1.1930     0.7200    -3.1510 H          0 168       0.446500
     80 H11         -1.2920    -1.6110    -2.1510 H          0 168       0.063575
     81 H12         -0.4920    -2.8570    -3.1440 H          0 168       0.063575
     82 H13          0.7660    -4.6060    -2.1400 H          0 168       0.135000
     83 H14          0.9700    -4.8720     2.1120 H          0 168       0.135000
     84 H15         -2.5300    -0.4070    -0.7480 H          0 168       0.069950
     85 H16         -2.0760    -2.0650    -1.2040 H          0 168       0.069950
     86 H17         -3.6210    -2.8730     0.2270 H          0 168       0.069200
     87 H18         -2.7750    -2.0840     1.5790 H          0 168       0.069200
     88 H19         -4.5650    -3.5880     0.7070 H          0 168       0.136500
     89 H20         -6.6560    -4.8140     0.3020 H          0 168       0.132500
     90 H21         -8.7460    -3.5930    -0.1350 H          0 168       0.133000
     91 H22         -8.7510    -1.1370    -0.2070 H          0 168       0.134000
     92 H23         -7.5780     1.0420     0.3290 H          0 168       0.143500
     93 H24         -4.6230     0.6690    -0.3760 H          0 168       0.143500
     94 H25         -7.5320     2.8760     0.6030 H          0 168       0.134000
     95 H26         -7.4810     5.3340     0.5720 H          0 168       0.133000
     96 H27         -5.4770     6.5220    -0.2140 H          0 168       0.132500
     97 H28         -3.5130     5.2620    -0.9930 H          0 168       0.136500
     98 H29         -1.6510     3.5340    -1.8890 H          0 168       0.069200
     99 H30         -2.4860     4.4740    -0.6300 H          0 168       0.069200
    100 H31         -0.7650     3.6850     0.6720 H          0 168       0.069950
    101 H32         -1.8360     2.2730     0.8160 H          0 168       0.069950
    102 H33          0.7750     3.1760     2.9880 H          0 168       0.063575
    103 H34         -0.4300     2.4160     1.9170 H          0 168       0.063575
    104 H35         -1.5070     0.3320     2.8000 H          0 168       0.446500
    105 H36         -1.1380    -2.1550     2.7970 H          0 168       0.063575
    106 H37          0.1600    -3.1780     3.4630 H          0 168       0.063575
    107 H38          2.4660    -2.3610     3.5370 H          0 168       0.131000
    108 H39          3.0860     1.8340     3.0770 H          0 168       0.131000
    109 H40          6.1180    -1.4940     3.2740 H          0 168       0.036311
    110 H41          4.6030    -2.3550     2.9100 H          0 168       0.036311
    111 H42          5.1030    -0.9710     1.9090 H          0 168       0.036311
    112 H43          4.4780     1.6070     4.5200 H          0 168       0.036311
    113 H44          6.0450     0.8200     4.2140 H          0 168       0.036311
    114 H45          5.0290     1.3430     2.8490 H          0 168       0.036311
    115 H46          3.8290    -1.9840     5.2570 H          0 168       0.036311
    116 H47          5.3430    -1.1230     5.6200 H          0 168       0.036311
    117 H48          3.7770    -0.3360     5.9260 H          0 168       0.036311
    118 H49          2.9160     3.9110     2.1220 H          0 168       0.135000
    119 H50          3.4730     4.0210    -2.1050 H          0 168       0.135000
    120 H51          1.9220     3.0470    -3.5480 H          0 168       0.063575
    121 H52          0.2630     2.7540    -2.9650 H          0 168       0.063575
    122 H53          5.8010     3.1240     0.5430 H          0 168       0.037311
    123 H54          6.4820     4.6360     1.1900 H          0 168       0.037311
    124 H55          5.1280     3.8390     2.0270 H          0 168       0.037311
    125 H56          4.4840     5.7440    -1.7490 H          0 168       0.037311
    126 H57          6.1050     5.7490    -1.0160 H          0 168       0.037311
    127 H58          5.4250     4.2360    -1.6620 H          0 168       0.037311
    128 H59          3.8060     5.9560     1.9050 H          0 168       0.037311
    129 H60          5.1600     6.7530     1.0680 H          0 168       0.037311
    130 H61          3.5380     6.7490     0.3340 H          0 168       0.037311
    131 H62          3.5420    -5.4690    -0.3970 H          0 168       0.037311
    132 H63          3.3150    -7.1260    -1.0050 H          0 168       0.037311
    133 H64          2.6600    -5.7450    -1.9180 H          0 168       0.037311
    134 H65          0.8950    -6.8740     1.8120 H          0 168       0.037311
    135 H66          2.2850    -7.7850     1.1730 H          0 168       0.037311
    136 H67          2.5110    -6.1280     1.7820 H          0 168       0.037311
    137 H68          0.3920    -6.7920    -1.8750 H          0 168       0.037311
    138 H69          1.0470    -8.1730    -0.9630 H          0 168       0.037311
    139 H70         -0.3420    -7.2620    -0.3230 H          0 168       0.037311
    140 H71          2.1920    -2.7430    -2.9500 H          0 168       0.131000
@<TRIPOS>BOND
     1     1     2 1   
     2     1    69 1   
     3     1    70 1   
     4     1    71 1   
     5     2     3 1   
     6     2     4 1   
     7     2     5 1   
     8     3    72 1   
     9     3    73 1   
    10     3    74 1   
    11     4    75 1   
    12     4    76 1   
    13     4    77 1   
    14     5     6 ar  
    15     5    68 ar  
    16     6     7 ar  
    17     6    78 1   
    18     7     8 ar  
    19     7    59 1   
    20     8     9 1   
    21     8    10 ar  
    22     9    79 1   
    23    10    11 1   
    24    10    68 ar  
    25    11    12 1   
    26    11    80 1   
    27    11    81 1   
    28    12    13 ar  
    29    12    17 ar  
    30    13    14 ar  
    31    13    82 1   
    32    14    15 ar  
    33    14    64 1   
    34    15    16 ar  
    35    15    83 1   
    36    16    17 ar  
    37    16    47 1   
    38    17    18 1   
    39    18    19 1   
    40    19    20 1   
    41    19    84 1   
    42    19    85 1   
    43    20    21 1   
    44    20    86 1   
    45    20    87 1   
    46    21    22 1   
    47    22    23 ar  
    48    22    27 ar  
    49    23    24 ar  
    50    23    88 1   
    51    24    25 ar  
    52    24    89 1   
    53    25    26 ar  
    54    25    90 1   
    55    26    27 ar  
    56    26    91 1   
    57    27    28 1   
    58    28    29 2   
    59    28    92 1   
    60    29    30 1   
    61    29    93 1   
    62    30    31 ar  
    63    30    35 ar  
    64    31    32 ar  
    65    31    94 1   
    66    32    33 ar  
    67    32    95 1   
    68    33    34 ar  
    69    33    96 1   
    70    34    35 ar  
    71    34    97 1   
    72    35    36 1   
    73    36    37 1   
    74    37    38 1   
    75    37    98 1   
    76    37    99 1   
    77    38    39 1   
    78    38   100 1   
    79    38   101 1   
    80    39    40 1   
    81    40    41 ar  
    82    40    58 ar  
    83    41    42 1   
    84    41    55 ar  
    85    42    43 1   
    86    42   102 1   
    87    42   103 1   
    88    43    44 ar  
    89    43    50 ar  
    90    44    45 1   
    91    44    46 ar  
    92    45   104 1   
    93    46    47 1   
    94    46    48 ar  
    95    47   105 1   
    96    47   106 1   
    97    48    49 ar  
    98    48   107 1   
    99    49    50 ar  
   100    49    51 1   
   101    50   108 1   
   102    51    52 1   
   103    51    53 1   
   104    51    54 1   
   105    52   109 1   
   106    52   110 1   
   107    52   111 1   
   108    53   112 1   
   109    53   113 1   
   110    53   114 1   
   111    54   115 1   
   112    54   116 1   
   113    54   117 1   
   114    55    56 ar  
   115    55   118 1   
   116    56    57 ar  
   117    56    60 1   
   118    57    58 ar  
   119    57   119 1   
   120    58    59 1   
   121    59   120 1   
   122    59   121 1   
   123    60    61 1   
   124    60    62 1   
   125    60    63 1   
   126    61   122 1   
   127    61   123 1   
   128    61   124 1   
   129    62   125 1   
   130    62   126 1   
   131    62   127 1   
   132    63   128 1   
   133    63   129 1   
   134    63   130 1   
   135    64    65 1   
   136    64    66 1   
   137    64    67 1   
   138    65   131 1   
   139    65   132 1   
   140    65   133 1   
   141    66   134 1   
   142    66   135 1   
   143    66   136 1   
   144    67   137 1   
   145    67   138 1   
   146    67   139 1   
   147    68   140 1   
@<TRIPOS>SUBSTRUCTURE
     1 168         1 TEMP              0 ****  ****    0 ROOT
