@<TRIPOS>MOLECULE
19
   72    80     1     0     0
SMALL
bcc


@<TRIPOS>ATOM
      1 H           -8.1410    -2.0800    -0.2100 H          0 19        0.441000
      2 O           -7.7250    -1.8680     0.6360 O          0 19       -0.495100
      3 C           -6.9220    -0.7930     0.4210 C          0 19        0.196600
      4 C1          -7.4290     0.4850     0.5770 C          0 19       -0.228500
      5 H1          -8.4590     0.6310     0.8680 H          0 19        0.166500
      6 C2          -6.6060     1.5730     0.3580 C          0 19        0.196600
      7 O1          -7.0940     2.8300     0.5260 O          0 19       -0.495100
      8 H2          -6.9340     3.0710     1.4480 H          0 19        0.441000
      9 C3          -5.2730     1.3920    -0.0350 C          0 19       -0.234800
     10 C4          -4.7760     0.1110    -0.1660 C          0 19       -0.035000
     11 H3          -3.7410    -0.0370    -0.4340 H          0 19        0.157000
     12 C5          -5.5910    -0.9850     0.0490 C          0 19       -0.234800
     13 C6          -5.1460    -2.4030    -0.1160 C          0 19        0.154050
     14 H4          -5.5960    -3.0010     0.6770 H          0 19        0.084200
     15 H5          -5.5110    -2.7710    -1.0750 H          0 19        0.084200
     16 N           -3.7080    -2.5870    -0.0720 N           0 19       -0.513900
     17 C7          -2.9340    -2.4430     1.0240 C           0 19        0.716600
     18 O2          -3.3340    -2.2480     2.1540 O           0 19       -0.553250
     19 C8          -1.5170    -2.5620     0.6160 C          0 19       -0.124850
     20 C9          -0.2990    -2.4080     1.2730 C          0 19       -0.010250
     21 H6          -0.2770    -2.2060     2.3340 H          0 19        0.186250
     22 C10          0.8860    -2.5150     0.5630 C          0 19       -0.124850
     23 C11          2.3210    -2.3590     0.9000 C           0 19        0.716600
     24 O3           2.7580    -2.0710     1.9960 O           0 19       -0.553250
     25 N1           3.0640    -2.5870    -0.1980 N           0 19       -0.513900
     26 C12          4.5010    -2.6370    -0.2770 C          0 19        0.154050
     27 C13          5.2740    -1.3860    -0.0270 C          0 19       -0.234800
     28 C14          6.6030    -1.5630     0.3850 C          0 19        0.196600
     29 O4           7.0910    -2.8200     0.5580 O          0 19       -0.495100
     30 C15          7.4200    -0.4740     0.6160 C          0 19       -0.228500
     31 C16          6.9150     0.8020     0.4430 C          0 19        0.196600
     32 O5           7.7140     1.8800     0.6610 O          0 19       -0.495100
     33 C17          5.5900     0.9900     0.0440 C          0 19       -0.234800
     34 C18          5.1450     2.4080    -0.1320 C          0 19        0.154050
     35 N2           3.7070     2.5910    -0.1030 N           0 19       -0.513900
     36 C19          2.9310     2.5070     0.9960 C           0 19        0.716600
     37 O6           3.3270     2.3740     2.1360 O           0 19       -0.553250
     38 C20          1.5150     2.6020     0.5780 C          0 19       -0.124850
     39 C21          0.2960     2.4800     1.2410 C          0 19       -0.010250
     40 H7           0.2730     2.3340     2.3110 H          0 19        0.186250
     41 C22         -0.8880     2.5470     0.5230 C          0 19       -0.124850
     42 C23         -2.3230     2.4030     0.8660 C           0 19        0.716600
     43 O7          -2.7610     2.1650     1.9730 O           0 19       -0.553250
     44 N3          -3.0640     2.5770    -0.2440 N           0 19       -0.513900
     45 C24         -2.2630     2.7820    -1.3190 C           0 19        0.716600
     46 O8          -2.6390     2.9320    -2.4640 O           0 19       -0.553250
     47 C25         -0.8530     2.7940    -0.8650 C          0 19       -0.124850
     48 C26          0.3550     2.9870    -1.5150 C          0 19       -0.010250
     49 H8           0.3730     3.2330    -2.5670 H          0 19        0.186250
     50 C27          1.5430     2.8630    -0.8040 C          0 19       -0.124850
     51 C28          2.9690     2.9130    -1.1840 C           0 19        0.716600
     52 O9           3.4030     3.1960    -2.2820 O           0 19       -0.553250
     53 C29         -4.5000     2.6360    -0.3190 C          0 19        0.154050
     54 H9          -4.7670     2.9630    -1.3240 H          0 19        0.084200
     55 H10         -4.8370     3.4060     0.3760 H          0 19        0.084200
     56 C30          4.7820    -0.1080    -0.1840 C          0 19       -0.035000
     57 C31          2.2640    -2.8510    -1.2630 C           0 19        0.716600
     58 O10          2.6410    -3.0640    -2.3970 O           0 19       -0.553250
     59 C32          0.8520    -2.8360    -0.8100 C          0 19       -0.124850
     60 C33         -0.3540    -3.0650    -1.4510 C          0 19       -0.010250
     61 H11         -0.3700    -3.3690    -2.4870 H          0 19        0.186250
     62 C34         -1.5430    -2.9000    -0.7500 C          0 19       -0.124850
     63 C35         -2.9670    -2.9700    -1.1310 C           0 19        0.716600
     64 O11         -3.3970    -3.3140    -2.2130 O           0 19       -0.553250
     65 H12          4.8450    -3.3850     0.4380 H          0 19        0.084200
     66 H13          4.7640    -2.9940    -1.2720 H          0 19        0.084200
     67 H14          7.4640    -3.0940    -0.2910 H          0 19        0.441000
     68 H15          8.4430    -0.6180     0.9310 H          0 19        0.166500
     69 H16          8.1420     2.0850    -0.1820 H          0 19        0.441000
     70 H17          5.5860     3.0100     0.6630 H          0 19        0.084200
     71 H18          5.5210     2.7730    -1.0870 H          0 19        0.084200
     72 H19          3.7560     0.0360    -0.4890 H          0 19        0.157000
@<TRIPOS>BOND
     1     1     2 1   
     2     2     3 1   
     3     3     4 ar  
     4     3    12 ar  
     5     4     5 1   
     6     4     6 ar  
     7     6     7 1   
     8     6     9 ar  
     9     7     8 1   
    10     9    10 ar  
    11     9    53 1   
    12    10    11 1   
    13    10    12 ar  
    14    12    13 1   
    15    13    14 1   
    16    13    15 1   
    17    13    16 1   
    18    16    17 1   
    19    16    63 1   
    20    17    18 2   
    21    17    19 1   
    22    19    20 ar  
    23    19    62 ar  
    24    20    21 1   
    25    20    22 ar  
    26    22    23 1   
    27    22    59 ar  
    28    23    24 2   
    29    23    25 1   
    30    25    26 1   
    31    25    57 1   
    32    26    27 1   
    33    26    65 1   
    34    26    66 1   
    35    27    28 ar  
    36    27    56 ar  
    37    28    29 1   
    38    28    30 ar  
    39    29    67 1   
    40    30    31 ar  
    41    30    68 1   
    42    31    32 1   
    43    31    33 ar  
    44    32    69 1   
    45    33    34 1   
    46    33    56 ar  
    47    34    35 1   
    48    34    70 1   
    49    34    71 1   
    50    35    36 1   
    51    35    51 1   
    52    36    37 2   
    53    36    38 1   
    54    38    39 ar  
    55    38    50 ar  
    56    39    40 1   
    57    39    41 ar  
    58    41    42 1   
    59    41    47 ar  
    60    42    43 2   
    61    42    44 1   
    62    44    45 1   
    63    44    53 1   
    64    45    46 2   
    65    45    47 1   
    66    47    48 ar  
    67    48    49 1   
    68    48    50 ar  
    69    50    51 1   
    70    51    52 2   
    71    53    54 1   
    72    53    55 1   
    73    56    72 1   
    74    57    58 2   
    75    57    59 1   
    76    59    60 ar  
    77    60    61 1   
    78    60    62 ar  
    79    62    63 1   
    80    63    64 2   
@<TRIPOS>SUBSTRUCTURE
     1 19          1 TEMP              0 ****  ****    0 ROOT
