@<TRIPOS>MOLECULE
DCB
  158   160     1     0     0
SMALL
bcc


@<TRIPOS>ATOM
      1 N1           4.4180     0.2280     1.9880 N          1 DCB      -0.919300
      2 C1           3.7630    -1.0280     2.4590 C          1 DCB       0.113000
      3 C2           2.3190    -0.7450     2.8700 C          1 DCB      -0.154400
      4 C3           1.5200    -1.9790     3.1680 C           1 DCB       0.652100
      5 O1           0.3230    -2.0920     2.9330 O           1 DCB      -0.585000
      6 O2           2.2250    -2.9690     3.7340 O          1 DCB      -0.607600
      7 C4           3.8970    -2.1130     1.3650 C           1 DCB       0.633600
      8 O3           4.6350    -3.0840     1.5000 O           1 DCB      -0.592600
      9 N2           3.1730    -1.8960     0.2110 N           1 DCB      -0.557400
     10 C5           3.0920    -2.9410    -0.8210 C          1 DCB       0.041200
     11 C6           4.3120    -3.0580    -1.7420 C          1 DCB      -0.044800
     12 S1           4.4520    -4.6760    -2.6090 S          1 DCB      -0.146100
     13 S2           3.6460    -4.3120    -4.4680 S          1 DCB      -0.168100
     14 C7           2.0100    -5.1450    -4.4400 C          1 DCB      -0.065800
     15 C8           2.1190    -6.6490    -4.7220 C          1 DCB       0.122100
     16 O4           2.9130    -7.3030    -3.7100 O          1 DCB      -0.599800
     17 C9           0.7590    -7.3850    -4.7040 C          1 DCB       0.137100
     18 O5           1.0390    -8.7900    -4.8790 O          1 DCB      -0.609800
     19 C10         -0.2350    -6.9700    -5.7940 C          1 DCB      -0.051300
     20 S3          -1.3600    -5.6070    -5.3070 S          1 DCB      -0.159600
     21 S4          -2.9830    -6.5590    -4.4620 S          1 DCB      -0.145100
     22 C11         -2.5370    -6.7710    -2.6970 C          1 DCB      -0.050300
     23 C12         -2.6570    -5.5010    -1.8230 C          1 DCB       0.054700
     24 C13         -2.0310    -5.8950    -0.4710 C           1 DCB       0.644100
     25 O6          -2.6860    -6.4470     0.4080 O           1 DCB      -0.600600
     26 N3          -0.6580    -5.7770    -0.4300 N           1 DCB      -0.554400
     27 C14          0.1570    -6.0860     0.7550 C          1 DCB       0.080200
     28 C15         -0.1410    -7.4450     1.3820 C          1 DCB      -0.158900
     29 C16          1.0490    -7.9670     2.1340 C           1 DCB       0.644600
     30 O7           1.0640    -8.3540     3.2900 O           1 DCB      -0.538500
     31 O8           2.1600    -8.0380     1.3770 O          1 DCB      -0.592600
     32 C17          0.0840    -4.9850     1.8190 C           1 DCB       0.617100
     33 O9           0.7220    -4.9560     2.8650 O           1 DCB      -0.573500
     34 O10         -0.7210    -3.9550     1.4880 O          1 DCB      -0.594600
     35 N4          -1.9820    -4.3420    -2.4250 N           1 DCB      -0.556400
     36 C18         -1.9670    -3.0100    -2.1110 C           1 DCB       0.687700
     37 O11         -1.3670    -2.2430    -2.8680 O           1 DCB      -0.607100
     38 C19         -2.5540    -2.4570    -0.8690 C          1 DCB      -0.154100
     39 C20         -1.8210    -1.4700    -0.1960 C          1 DCB      -0.070000
     40 C21         -2.3190    -0.8650     0.9640 C          1 DCB      -0.167750
     41 C22         -3.5700    -1.2210     1.4560 C          1 DCB       0.072100
     42 C23         -4.3020    -2.2100     0.7830 C          1 DCB      -0.167750
     43 C24         -3.8140    -2.8020    -0.3890 C          1 DCB      -0.070000
     44 N5          -4.1480    -0.6820     2.6150 N           1 DCB      -0.468100
     45 C25         -3.9640     0.4850     3.2990 C           1 DCB       0.644100
     46 O12         -4.4950     0.5690     4.4160 O           1 DCB      -0.622100
     47 C26         -3.2230     1.7040     2.7020 C          1 DCB       0.041200
     48 N6          -3.1970     2.7230     3.7690 N           1 DCB      -0.557400
     49 C27         -2.4080     3.8520     3.8010 C           1 DCB       0.633600
     50 O13         -1.7030     4.2250     2.8670 O           1 DCB      -0.592600
     51 C28         -2.5270     4.6050     5.1530 C          1 DCB       0.113000
     52 N7          -2.1800     3.6420     6.2280 N          1 DCB      -0.919300
     53 C29         -1.6310     5.8410     5.2040 C          1 DCB      -0.154400
     54 C30         -2.2860     6.9980     4.4960 C           1 DCB       0.652100
     55 O14         -3.2550     6.9580     3.7530 O           1 DCB      -0.585000
     56 O15         -1.6670     8.1620     4.7670 O          1 DCB      -0.607600
     57 C31         -3.9770     2.1930     1.4530 C          1 DCB      -0.044800
     58 S5          -2.8430     2.9590     0.2350 S          1 DCB      -0.146100
     59 S6          -4.0270     4.4160    -0.6070 S          1 DCB      -0.168100
     60 C32         -4.1410     5.6770     0.7180 C          1 DCB      -0.065800
     61 C33         -3.3830     6.9810     0.4370 C          1 DCB       0.122100
     62 O16         -3.9630     8.0170     1.2600 O          1 DCB      -0.599800
     63 C34         -1.8560     6.9780     0.7060 C          1 DCB       0.137100
     64 O17         -1.2250     5.7150     0.4990 O          1 DCB      -0.609800
     65 C35         -1.1250     8.1200    -0.0310 C          1 DCB      -0.051300
     66 S7          -1.2360     8.1320    -1.8660 S          1 DCB      -0.159600
     67 S8           0.4760     7.1610    -2.4590 S          1 DCB      -0.145100
     68 C36         -0.0770     5.4260    -2.5570 C          1 DCB      -0.050300
     69 C37          1.0680     4.4250    -2.3800 C          1 DCB       0.054700
     70 C38          1.8250     4.5840    -1.0360 C           1 DCB       0.644100
     71 O18          2.9870     4.9870    -0.9520 O           1 DCB      -0.600600
     72 N8           1.1110     4.2320     0.0840 N           1 DCB      -0.554400
     73 C39          1.7020     4.0720     1.4190 C          1 DCB       0.080200
     74 C40          2.6040     5.2030     1.9000 C          1 DCB      -0.158900
     75 C41          1.9490     6.5400     1.7520 C           1 DCB       0.644600
     76 O19          1.1300     6.9850     2.5450 O           1 DCB      -0.538500
     77 O20          2.3470     7.2160     0.6520 O          1 DCB      -0.592600
     78 C42          2.4650     2.7380     1.4560 C           1 DCB       0.617100
     79 O21          2.3960     1.8280     0.6380 O           1 DCB      -0.573500
     80 O22          3.2210     2.5990     2.5690 O          1 DCB      -0.594600
     81 N9           2.0220     4.4810    -3.5000 N           1 DCB      -0.556400
     82 C43          2.8300     3.4550    -3.9280 C           1 DCB       0.687700
     83 O23          3.8300     3.6730    -4.6000 O           1 DCB      -0.607100
     84 C44          2.4890     2.0720    -3.5480 C          1 DCB      -0.154100
     85 C45          3.3680     1.3540    -2.7390 C          1 DCB      -0.070000
     86 C46          3.0340     0.0610    -2.3150 C          1 DCB      -0.167750
     87 C47          1.8330    -0.5310    -2.7050 C          1 DCB       0.072100
     88 C48          0.9790     0.1990    -3.5530 C          1 DCB      -0.167750
     89 C49          1.3010     1.4890    -3.9790 C          1 DCB      -0.070000
     90 N10          1.3550    -1.7980    -2.3290 N           1 DCB      -0.468100
     91 C50          1.7620    -2.8400    -1.5610 C           1 DCB       0.644100
     92 O24          0.9640    -3.7850    -1.4450 O           1 DCB      -0.622100
     93 H1           5.4200     0.0190     1.8960 H          1 DCB       0.372300
     94 H2           4.1160     0.3940     1.0170 H          1 DCB       0.372300
     95 H3           4.3180    -1.3810     3.3370 H          1 DCB       0.112200
     96 H4           2.2900    -0.1000     3.7540 H          1 DCB       0.097700
     97 H5           1.7900    -0.2270     2.0620 H          1 DCB       0.097700
     98 H6           1.6440    -3.7750     3.7470 H          1 DCB       0.476000
     99 H7           2.5680    -1.0820     0.1370 H          1 DCB       0.332000
    100 H8           3.0330    -3.8810    -0.2510 H          1 DCB       0.129200
    101 H9           4.3660    -2.2730    -2.4970 H          1 DCB       0.101450
    102 H10          5.2260    -2.9670    -1.1440 H          1 DCB       0.101450
    103 H11          1.5280    -4.9670    -3.4800 H          1 DCB       0.099950
    104 H12          1.4170    -4.6580    -5.2180 H          1 DCB       0.099950
    105 H13          2.6220    -6.8320    -5.6790 H          1 DCB       0.082200
    106 H14          3.7260    -6.7710    -3.5990 H          1 DCB       0.423000
    107 H15          0.3180    -7.3100    -3.7060 H          1 DCB       0.068700
    108 H16          1.8030    -8.9630    -4.2890 H          1 DCB       0.422000
    109 H17          0.3100    -6.6400    -6.6850 H          1 DCB       0.110700
    110 H18         -0.8430    -7.8220    -6.1170 H          1 DCB       0.110700
    111 H19         -3.2110    -7.5370    -2.2940 H          1 DCB       0.095950
    112 H20         -1.5350    -7.2050    -2.6450 H          1 DCB       0.095950
    113 H21         -3.7100    -5.2570    -1.6750 H          1 DCB       0.100700
    114 H22         -0.2710    -5.0360    -1.0220 H          1 DCB       0.341500
    115 H23          1.1830    -6.0460     0.3700 H          1 DCB       0.120200
    116 H24         -0.3990    -8.1930     0.6220 H          1 DCB       0.109950
    117 H25         -0.9810    -7.3810     2.0850 H          1 DCB       0.109950
    118 H26          2.8480    -8.4000     1.9760 H          1 DCB       0.456500
    119 H27         -0.6090    -3.2680     2.1920 H          1 DCB       0.465500
    120 H28         -1.6490    -4.4870    -3.3740 H          1 DCB       0.337500
    121 H29         -0.8380    -1.1790    -0.5560 H          1 DCB       0.154500
    122 H30         -1.6650    -0.1750     1.4800 H          1 DCB       0.156750
    123 H31         -5.2900    -2.5050     1.1360 H          1 DCB       0.156750
    124 H32         -4.4530    -3.4980    -0.9200 H          1 DCB       0.154500
    125 H33         -4.8490    -1.2600     3.0700 H          1 DCB       0.344500
    126 H34         -2.1800     1.4460     2.5160 H          1 DCB       0.129200
    127 H35         -3.5610     2.4220     4.6770 H          1 DCB       0.332000
    128 H36         -3.5810     4.8810     5.2800 H          1 DCB       0.112200
    129 H37         -1.1920     3.3930     6.1570 H          1 DCB       0.372300
    130 H38         -2.2840     4.0950     7.1370 H          1 DCB       0.372300
    131 H39         -1.4880     6.1480     6.2470 H          1 DCB       0.097700
    132 H40         -0.6490     5.6590     4.7540 H          1 DCB       0.097700
    133 H41         -2.1020     8.8520     4.2260 H          1 DCB       0.476000
    134 H42         -4.7490     2.9120     1.7500 H          1 DCB       0.101450
    135 H43         -4.4850     1.3810     0.9260 H          1 DCB       0.101450
    136 H44         -5.2100     5.9130     0.8040 H          1 DCB       0.099950
    137 H45         -3.8660     5.2630     1.6910 H          1 DCB       0.099950
    138 H46         -3.5970     7.2770    -0.5940 H          1 DCB       0.082200
    139 H47         -3.9390     7.6970     2.1880 H          1 DCB       0.423000
    140 H48         -1.6970     7.1990     1.7660 H          1 DCB       0.068700
    141 H49         -1.4860     5.1610     1.2730 H          1 DCB       0.422000
    142 H50         -1.5480     9.0750     0.3000 H          1 DCB       0.110700
    143 H51         -0.0690     8.1360     0.2480 H          1 DCB       0.110700
    144 H52         -0.5410     5.2830    -3.5390 H          1 DCB       0.095950
    145 H53         -0.8470     5.2340    -1.8090 H          1 DCB       0.095950
    146 H54          0.6190     3.4280    -2.3600 H          1 DCB       0.100700
    147 H55          0.0970     4.3490     0.0490 H          1 DCB       0.341500
    148 H56          0.8520     3.9640     2.1010 H          1 DCB       0.120200
    149 H57          3.5820     5.2040     1.4050 H          1 DCB       0.109950
    150 H58          2.8400     5.0830     2.9650 H          1 DCB       0.109950
    151 H59          2.9050     6.6780     0.0400 H          1 DCB       0.456500
    152 H60          3.7080     1.7350     2.4800 H          1 DCB       0.465500
    153 H61          2.4480     5.3870    -3.6710 H          1 DCB       0.337500
    154 H62          4.3070     1.8090    -2.4280 H          1 DCB       0.154500
    155 H63          3.7560    -0.4220    -1.6750 H          1 DCB       0.156750
    156 H64          0.0360    -0.2290    -3.8920 H          1 DCB       0.156750
    157 H65          0.6240     2.0320    -4.6340 H          1 DCB       0.154500
    158 H66          0.4220    -2.0090    -2.7050 H          1 DCB       0.344500
@<TRIPOS>BOND
     1     1     2 1   
     2     1    93 1   
     3     1    94 1   
     4     2     3 1   
     5     2     7 1   
     6     2    95 1   
     7     3     4 1   
     8     3    96 1   
     9     3    97 1   
    10     4     5 2   
    11     4     6 1   
    12     6    98 1   
    13     7     8 2   
    14     7     9 1   
    15     9    10 1   
    16     9    99 1   
    17    10    11 1   
    18    10    91 1   
    19    10   100 1   
    20    11    12 1   
    21    11   101 1   
    22    11   102 1   
    23    12    13 1   
    24    13    14 1   
    25    14    15 1   
    26    14   103 1   
    27    14   104 1   
    28    15    16 1   
    29    15    17 1   
    30    15   105 1   
    31    16   106 1   
    32    17    18 1   
    33    17    19 1   
    34    17   107 1   
    35    18   108 1   
    36    19    20 1   
    37    19   109 1   
    38    19   110 1   
    39    20    21 1   
    40    21    22 1   
    41    22    23 1   
    42    22   111 1   
    43    22   112 1   
    44    23    24 1   
    45    23    35 1   
    46    23   113 1   
    47    24    25 2   
    48    24    26 1   
    49    26    27 1   
    50    26   114 1   
    51    27    28 1   
    52    27    32 1   
    53    27   115 1   
    54    28    29 1   
    55    28   116 1   
    56    28   117 1   
    57    29    30 2   
    58    29    31 1   
    59    31   118 1   
    60    32    33 2   
    61    32    34 1   
    62    34   119 1   
    63    35    36 1   
    64    35   120 1   
    65    36    37 2   
    66    36    38 1   
    67    38    39 ar  
    68    38    43 ar  
    69    39    40 ar  
    70    39   121 1   
    71    40    41 ar  
    72    40   122 1   
    73    41    42 ar  
    74    41    44 1   
    75    42    43 ar  
    76    42   123 1   
    77    43   124 1   
    78    44    45 1   
    79    44   125 1   
    80    45    46 2   
    81    45    47 1   
    82    47    48 1   
    83    47    57 1   
    84    47   126 1   
    85    48    49 1   
    86    48   127 1   
    87    49    50 2   
    88    49    51 1   
    89    51    52 1   
    90    51    53 1   
    91    51   128 1   
    92    52   129 1   
    93    52   130 1   
    94    53    54 1   
    95    53   131 1   
    96    53   132 1   
    97    54    55 2   
    98    54    56 1   
    99    56   133 1   
   100    57    58 1   
   101    57   134 1   
   102    57   135 1   
   103    58    59 1   
   104    59    60 1   
   105    60    61 1   
   106    60   136 1   
   107    60   137 1   
   108    61    62 1   
   109    61    63 1   
   110    61   138 1   
   111    62   139 1   
   112    63    64 1   
   113    63    65 1   
   114    63   140 1   
   115    64   141 1   
   116    65    66 1   
   117    65   142 1   
   118    65   143 1   
   119    66    67 1   
   120    67    68 1   
   121    68    69 1   
   122    68   144 1   
   123    68   145 1   
   124    69    70 1   
   125    69    81 1   
   126    69   146 1   
   127    70    71 2   
   128    70    72 1   
   129    72    73 1   
   130    72   147 1   
   131    73    74 1   
   132    73    78 1   
   133    73   148 1   
   134    74    75 1   
   135    74   149 1   
   136    74   150 1   
   137    75    76 2   
   138    75    77 1   
   139    77   151 1   
   140    78    79 2   
   141    78    80 1   
   142    80   152 1   
   143    81    82 1   
   144    81   153 1   
   145    82    83 2   
   146    82    84 1   
   147    84    85 ar  
   148    84    89 ar  
   149    85    86 ar  
   150    85   154 1   
   151    86    87 ar  
   152    86   155 1   
   153    87    88 ar  
   154    87    90 1   
   155    88    89 ar  
   156    88   156 1   
   157    89   157 1   
   158    90    91 1   
   159    90   158 1   
   160    91    92 2   
@<TRIPOS>SUBSTRUCTURE
     1 DCB         1 TEMP              0 ****  ****    0 ROOT
