@<TRIPOS>MOLECULE
ASB
  118   124     1     0     0
SMALL
bcc


@<TRIPOS>ATOM
      1 C1           6.8560     1.7760    -4.4610 C          1 ASB      -0.073300
      2 C2           6.6350     0.6480    -3.4840 C          1 ASB      -0.023800
      3 C3           6.7090    -0.6640    -3.9730 C          1 ASB      -0.138500
      4 C4           6.6010    -1.7770    -3.1290 C          1 ASB      -0.023800
      5 C5           6.7860    -3.1440    -3.7400 C          1 ASB      -0.073300
      6 C6           6.4040    -1.5840    -1.7430 C          1 ASB      -0.152300
      7 C7           6.3740    -2.7890    -0.8150 C          1 ASB       0.125800
      8 N1           5.0270    -3.3330    -0.7120 N           1 ASB      -0.525900
      9 C8           4.6670    -4.1150     0.3590 C           1 ASB       0.659200
     10 O1           5.3990    -4.3590     1.3100 O           1 ASB      -0.551100
     11 C9           3.2740    -4.6270     0.4320 C          1 ASB      -0.122600
     12 C10          2.2820    -4.3140    -0.4890 C          1 ASB      -0.006500
     13 C11          0.9610    -4.6420    -0.1960 C          1 ASB      -0.119000
     14 C12          0.6250    -5.2840     1.0160 C          1 ASB      -0.007300
     15 C13         -0.7670    -5.2150     1.5060 C          1 ASB      -0.007300
     16 C14         -1.1120    -4.2330     2.4610 C          1 ASB      -0.119000
     17 C15         -2.4390    -3.8720     2.6660 C          1 ASB      -0.006500
     18 C16         -3.4230    -4.4850     1.9050 C          1 ASB      -0.122600
     19 C17         -3.0710    -5.5270     1.0430 C          1 ASB       0.041700
     20 N2          -1.7670    -5.8820     0.8510 N          1 ASB       0.051900
     21 C18         -1.5040    -7.0000    -0.0940 C          1 ASB      -0.045400
     22 C19         -4.8420    -4.0620     1.9120 C           1 ASB       0.659200
     23 O2          -5.6690    -4.8830     1.5420 O           1 ASB      -0.551100
     24 N3          -5.1090    -2.7540     2.2410 N           1 ASB      -0.525900
     25 C20         -6.4490    -2.1890     2.1450 C          1 ASB       0.125800
     26 C21         -6.4540    -0.9680     1.2300 C          1 ASB      -0.152300
     27 C22         -6.6620    -1.1520    -0.1570 C          1 ASB      -0.023800
     28 C23         -6.8700    -2.5140    -0.7730 C          1 ASB      -0.073300
     29 C24         -6.7340    -0.0370    -1.0010 C          1 ASB      -0.138500
     30 C25         -6.6280     1.2700    -0.5120 C          1 ASB      -0.023800
     31 C26         -6.8000     2.4020    -1.4940 C          1 ASB      -0.073300
     32 C27         -6.4200     1.4860     0.8700 C          1 ASB      -0.152300
     33 C28         -6.3770     2.9180     1.3960 C          1 ASB       0.125800
     34 N4          -5.0220     3.4490     1.3320 N           1 ASB      -0.525900
     35 C29         -4.7200     4.6000     0.6420 C           1 ASB       0.659200
     36 O3          -5.5250     5.3030     0.0480 O           1 ASB      -0.551100
     37 C30         -3.2900     4.9630     0.5190 C          1 ASB      -0.122600
     38 C31         -2.3200     4.5680     1.4290 C          1 ASB      -0.006500
     39 C32         -0.9840     4.8180     1.1340 C          1 ASB      -0.119000
     40 C33         -0.6160     5.4740    -0.0620 C          1 ASB      -0.007300
     41 C34          0.7760     5.3610    -0.5450 C          1 ASB      -0.007300
     42 C35          1.0890     4.3890    -1.5200 C          1 ASB      -0.119000
     43 C36          2.4000     3.9540    -1.7010 C          1 ASB      -0.006500
     44 C37          3.4030     4.4900    -0.9040 C          1 ASB      -0.122600
     45 C38          3.0810     5.5270    -0.0210 C          1 ASB       0.041700
     46 N5           1.7960     5.9540     0.1480 N          1 ASB       0.051900
     47 C39          1.5750     7.0550     1.1240 C          1 ASB      -0.045400
     48 C40          4.7810     3.9390    -0.8200 C           1 ASB       0.659200
     49 O4           5.5220     4.4250     0.0250 O           1 ASB      -0.551100
     50 N6           5.1150     2.8750    -1.6220 N           1 ASB      -0.525900
     51 C41          6.4460     2.2870    -1.5590 C          1 ASB       0.125800
     52 C42          6.4390     0.8660    -2.1020 C          1 ASB      -0.152300
     53 C43          6.2580    -0.2570    -1.2380 C          1 ASB      -0.028800
     54 C44          6.0110    -0.0370     0.2400 C          1 ASB      -0.070800
     55 N7          -1.5990     5.9530    -0.8850 N          1 ASB       0.051900
     56 C45         -1.3090     6.7440    -2.1100 C          1 ASB      -0.045400
     57 C46         -2.9120     5.7040    -0.6040 C          1 ASB       0.041700
     58 C47         -6.2780     0.3580     1.7390 C          1 ASB      -0.028800
     59 C48         -6.0480     0.5720     3.2200 C          1 ASB      -0.070800
     60 N8           1.6310    -5.6810     1.8530 N          1 ASB       0.051900
     61 C49          1.3840    -6.4490     3.1030 C          1 ASB      -0.045400
     62 C50          2.9270    -5.3570     1.5750 C          1 ASB       0.041700
     63 H1           6.0870     2.5460    -4.3480 H          1 ASB       0.060200
     64 H2           7.8450     2.2170    -4.3090 H          1 ASB       0.060200
     65 H3           6.7990     1.4260    -5.4980 H          1 ASB       0.060200
     66 H4           6.9030    -0.8220    -5.0350 H          1 ASB       0.161000
     67 H5           7.7640    -3.5510    -3.4640 H          1 ASB       0.060200
     68 H6           5.9970    -3.8280    -3.4140 H          1 ASB       0.060200
     69 H7           6.7350    -3.1050    -4.8340 H          1 ASB       0.060200
     70 H8           7.0270    -3.5900    -1.1790 H          1 ASB       0.099200
     71 H9           6.7600    -2.5410     0.1790 H          1 ASB       0.099200
     72 H10          4.5100    -3.3400    -1.5780 H          1 ASB       0.312500
     73 H11          2.4960    -3.7530    -1.3960 H          1 ASB       0.206500
     74 H12          0.1840    -4.2950    -0.8790 H          1 ASB       0.195000
     75 H13         -0.3400    -3.6780     2.9970 H          1 ASB       0.195000
     76 H14         -2.6840    -3.0990     3.3930 H          1 ASB       0.206500
     77 H15         -3.8240    -6.0590     0.4600 H          1 ASB       0.263000
     78 H16         -1.3470    -6.5640    -1.0830 H          1 ASB       0.117867
     79 H17         -0.6250    -7.5520     0.2460 H          1 ASB       0.117867
     80 H18         -2.3640    -7.6760    -0.1000 H          1 ASB       0.117867
     81 H19         -4.3850    -2.0940     2.4700 H          1 ASB       0.312500
     82 H20         -7.1670    -2.9420     1.8060 H          1 ASB       0.099200
     83 H21         -6.7700    -1.9270     3.1580 H          1 ASB       0.099200
     84 H22         -6.0030    -3.1530    -0.5880 H          1 ASB       0.060200
     85 H23         -7.7750    -2.9820    -0.3760 H          1 ASB       0.060200
     86 H24         -6.9890    -2.4500    -1.8610 H          1 ASB       0.060200
     87 H25         -6.9300    -0.1900    -2.0630 H          1 ASB       0.161000
     88 H26         -5.9150     3.0440    -1.4970 H          1 ASB       0.060200
     89 H27         -7.6900     2.9900    -1.2520 H          1 ASB       0.060200
     90 H28         -6.9260     2.0330    -2.5180 H          1 ASB       0.060200
     91 H29         -6.7010     2.9670     2.4410 H          1 ASB       0.099200
     92 H30         -7.0750     3.5610     0.8520 H          1 ASB       0.099200
     93 H31         -4.3150     2.8630     1.7430 H          1 ASB       0.312500
     94 H32         -2.5840     4.0440     2.3460 H          1 ASB       0.206500
     95 H33         -0.2260     4.4190     1.8100 H          1 ASB       0.195000
     96 H34          0.3000     3.8820    -2.0780 H          1 ASB       0.195000
     97 H35          2.5940     3.1500    -2.4070 H          1 ASB       0.206500
     98 H36          3.8420     5.9930     0.6070 H          1 ASB       0.263000
     99 H37          2.4620     7.6930     1.1510 H          1 ASB       0.117867
    100 H38          0.7210     7.6530     0.7960 H          1 ASB       0.117867
    101 H39          1.3940     6.5980     2.0990 H          1 ASB       0.117867
    102 H40          4.5960     2.6480    -2.4560 H          1 ASB       0.312500
    103 H41          6.8290     2.3230    -0.5330 H          1 ASB       0.099200
    104 H42          7.1200     2.9310    -2.1340 H          1 ASB       0.099200
    105 H43          5.4320     0.8730     0.4220 H          1 ASB       0.052033
    106 H44          5.4090    -0.8400     0.6740 H          1 ASB       0.052033
    107 H45          6.9640     0.0300     0.7740 H          1 ASB       0.052033
    108 H46         -1.1690     6.0380    -2.9310 H          1 ASB       0.117867
    109 H47         -0.4130     7.3460    -1.9400 H          1 ASB       0.117867
    110 H48         -2.1500     7.4130    -2.3130 H          1 ASB       0.117867
    111 H49         -3.6520     6.0670    -1.3180 H          1 ASB       0.263000
    112 H50         -5.4720    -0.2450     3.6630 H          1 ASB       0.052033
    113 H51         -7.0070     0.6610     3.7390 H          1 ASB       0.052033
    114 H52         -5.4480     1.4660     3.4120 H          1 ASB       0.052033
    115 H53          0.5130    -7.0930     2.9580 H          1 ASB       0.117867
    116 H54          2.2530    -7.0770     3.3160 H          1 ASB       0.117867
    117 H55          1.2200    -5.7270     3.9060 H          1 ASB       0.117867
    118 H56          3.6770    -5.6450     2.3130 H          1 ASB       0.263000
@<TRIPOS>BOND
     1     1     2 1   
     2     1    63 1   
     3     1    64 1   
     4     1    65 1   
     5     2     3 ar  
     6     2    52 ar  
     7     3     4 ar  
     8     3    66 1   
     9     4     5 1   
    10     4     6 ar  
    11     5    67 1   
    12     5    68 1   
    13     5    69 1   
    14     6     7 1   
    15     6    53 ar  
    16     7     8 1   
    17     7    70 1   
    18     7    71 1   
    19     8     9 1   
    20     8    72 1   
    21     9    10 2   
    22     9    11 1   
    23    11    12 1   
    24    11    62 2   
    25    12    13 2   
    26    12    73 1   
    27    13    14 1   
    28    13    74 1   
    29    14    15 2   
    30    14    60 1   
    31    15    16 1   
    32    15    20 1   
    33    16    17 2   
    34    16    75 1   
    35    17    18 1   
    36    17    76 1   
    37    18    19 2   
    38    18    22 1   
    39    19    20 1   
    40    19    77 1   
    41    20    21 1   
    42    21    78 1   
    43    21    79 1   
    44    21    80 1   
    45    22    23 2   
    46    22    24 1   
    47    24    25 1   
    48    24    81 1   
    49    25    26 1   
    50    25    82 1   
    51    25    83 1   
    52    26    27 ar  
    53    26    58 ar  
    54    27    28 1   
    55    27    29 ar  
    56    28    84 1   
    57    28    85 1   
    58    28    86 1   
    59    29    30 ar  
    60    29    87 1   
    61    30    31 1   
    62    30    32 ar  
    63    31    88 1   
    64    31    89 1   
    65    31    90 1   
    66    32    33 1   
    67    32    58 ar  
    68    33    34 1   
    69    33    91 1   
    70    33    92 1   
    71    34    35 1   
    72    34    93 1   
    73    35    36 2   
    74    35    37 1   
    75    37    38 1   
    76    37    57 2   
    77    38    39 2   
    78    38    94 1   
    79    39    40 1   
    80    39    95 1   
    81    40    41 2   
    82    40    55 1   
    83    41    42 1   
    84    41    46 1   
    85    42    43 2   
    86    42    96 1   
    87    43    44 1   
    88    43    97 1   
    89    44    45 2   
    90    44    48 1   
    91    45    46 1   
    92    45    98 1   
    93    46    47 1   
    94    47    99 1   
    95    47   100 1   
    96    47   101 1   
    97    48    49 2   
    98    48    50 1   
    99    50    51 1   
   100    50   102 1   
   101    51    52 1   
   102    51   103 1   
   103    51   104 1   
   104    52    53 ar  
   105    53    54 1   
   106    54   105 1   
   107    54   106 1   
   108    54   107 1   
   109    55    56 1   
   110    55    57 1   
   111    56   108 1   
   112    56   109 1   
   113    56   110 1   
   114    57   111 1   
   115    58    59 1   
   116    59   112 1   
   117    59   113 1   
   118    59   114 1   
   119    60    61 1   
   120    60    62 1   
   121    61   115 1   
   122    61   116 1   
   123    61   117 1   
   124    62   118 1   
@<TRIPOS>SUBSTRUCTURE
     1 ASB         1 TEMP              0 ****  ****    0 ROOT
