@<TRIPOS>MOLECULE
186
   48    52     1     0     0
SMALL
bcc


@<TRIPOS>ATOM
      1 C            4.2850    -2.0170     0.2720 C          0 186       0.180700
      2 O            3.4810    -2.4330    -0.8330 O          0 186      -0.393100
      3 C1           2.1940    -2.4390    -0.4070 C          0 186       0.688800
      4 N            1.2040    -2.3510    -1.2860 N          0 186      -0.294750
      5 N1          -0.0210    -2.3610    -0.8810 N          0 186      -0.294750
      6 C2          -0.2900    -2.4580     0.4150 C          0 186       0.688800
      7 O1          -1.5780    -2.4720     0.8390 O          0 186      -0.393100
      8 C3          -2.3960    -2.5830    -0.3280 C          0 186       0.180700
      9 C4          -3.5800    -1.6580    -0.2050 C          0 186      -0.134300
     10 C5          -3.4030    -0.2910    -0.2980 C          0 186      -0.077000
     11 C6          -4.4880     0.5570    -0.1820 C          0 186      -0.134300
     12 C7          -4.2960     2.0480    -0.2760 C          0 186       0.180700
     13 O2          -3.4860     2.4930     0.8150 O          0 186      -0.393100
     14 C8          -2.2000     2.4520     0.3860 C          0 186       0.688800
     15 N2          -1.9380     2.4370    -0.9150 N          0 186      -0.294750
     16 N3          -0.7160     2.4050    -1.3250 N          0 186      -0.294750
     17 C9           0.2790     2.3860    -0.4460 C          0 186       0.688800
     18 O3           1.5620     2.3590    -0.8840 O          0 186      -0.393100
     19 C10          2.4000     2.6130     0.2450 C          0 186       0.180700
     20 C11          3.5920     1.6910     0.1950 C          0 186      -0.134300
     21 C12          4.8690     2.2110     0.0890 C          0 186      -0.091000
     22 C13          5.9580     1.3610     0.0370 C          0 186      -0.137000
     23 C14          5.7710    -0.0080     0.0940 C          0 186      -0.091000
     24 C15          4.4950    -0.5260     0.2060 C          0 186      -0.134300
     25 C16          3.4050     0.3230     0.2550 C          0 186      -0.077000
     26 N4           0.0160     2.3930     0.8540 N          0 186      -0.294750
     27 N5          -1.2070     2.4250     1.2640 N          0 186      -0.294750
     28 C17         -5.7520     0.0360     0.0250 C          0 186      -0.091000
     29 C18         -5.9300    -1.3310     0.1160 C          0 186      -0.137000
     30 C19         -4.8440    -2.1780     0.0020 C          0 186      -0.091000
     31 N6           0.7000    -2.5410     1.2940 N          0 186      -0.294750
     32 N7           1.9240    -2.5310     0.8890 N          0 186      -0.294750
     33 H            3.7820    -2.2720     1.2050 H          0 186       0.079700
     34 H1           5.2500    -2.5220     0.2300 H          0 186       0.079700
     35 H2          -1.8130    -2.3110    -1.2070 H          0 186       0.079700
     36 H3          -2.7470    -3.6100    -0.4290 H          0 186       0.079700
     37 H4          -2.4160     0.1160    -0.4610 H          0 186       0.149000
     38 H5          -3.8040     2.2920    -1.2170 H          0 186       0.079700
     39 H6          -5.2660     2.5430    -0.2340 H          0 186       0.079700
     40 H7           2.7390     3.6490     0.2220 H          0 186       0.079700
     41 H8           1.8390     2.4330     1.1630 H          0 186       0.079700
     42 H9           5.0150     3.2800     0.0460 H          0 186       0.142500
     43 H10          6.9560     1.7670    -0.0480 H          0 186       0.140000
     44 H11          6.6220    -0.6720     0.0510 H          0 186       0.142500
     45 H12          2.4080    -0.0830     0.3420 H          0 186       0.149000
     46 H13         -6.6000     0.6990     0.1170 H          0 186       0.142500
     47 H14         -6.9180    -1.7380     0.2750 H          0 186       0.140000
     48 H15         -4.9830    -3.2470     0.0750 H          0 186       0.142500
@<TRIPOS>BOND
     1     1     2 1   
     2     1    24 1   
     3     1    33 1   
     4     1    34 1   
     5     2     3 1   
     6     3     4 ar  
     7     3    32 ar  
     8     4     5 ar  
     9     5     6 ar  
    10     6     7 1   
    11     6    31 ar  
    12     7     8 1   
    13     8     9 1   
    14     8    35 1   
    15     8    36 1   
    16     9    10 ar  
    17     9    30 ar  
    18    10    11 ar  
    19    10    37 1   
    20    11    12 1   
    21    11    28 ar  
    22    12    13 1   
    23    12    38 1   
    24    12    39 1   
    25    13    14 1   
    26    14    15 ar  
    27    14    27 ar  
    28    15    16 ar  
    29    16    17 ar  
    30    17    18 1   
    31    17    26 ar  
    32    18    19 1   
    33    19    20 1   
    34    19    40 1   
    35    19    41 1   
    36    20    21 ar  
    37    20    25 ar  
    38    21    22 ar  
    39    21    42 1   
    40    22    23 ar  
    41    22    43 1   
    42    23    24 ar  
    43    23    44 1   
    44    24    25 ar  
    45    25    45 1   
    46    26    27 ar  
    47    28    29 ar  
    48    28    46 1   
    49    29    30 ar  
    50    29    47 1   
    51    30    48 1   
    52    31    32 ar  
@<TRIPOS>SUBSTRUCTURE
     1 186         1 TEMP              0 ****  ****    0 ROOT
