@<TRIPOS>MOLECULE
46
   96   104     1     0     0
SMALL
bcc


@<TRIPOS>ATOM
      1 O1          -4.9490     6.3290    -3.0900 O           1 46       -0.533500
      2 C1          -4.5280     5.4870    -2.3080 C           1 46        0.616350
      3 O2          -5.3390     4.4780    -1.9280 O          1 46       -0.595850
      4 C2          -3.1430     5.4950    -1.6580 C          1 46        0.093950
      5 C3          -2.0970     5.7920    -2.7380 C          1 46       -0.049800
      6 S1          -0.3820     5.9940    -2.1170 S          1 46       -0.146350
      7 S2          -0.4560     7.7720    -1.0830 S          1 46       -0.146350
      8 C4          -0.7340     7.2730     0.6630 C          1 46       -0.049800
      9 C5           0.5760     7.0500     1.4270 C          1 46        0.093950
     10 C6           0.2800     6.9430     2.9230 C           1 46        0.616350
     11 O3          -0.4450     7.6950     3.5580 O           1 46       -0.533500
     12 O4           0.9330     5.9540     3.5700 O          1 46       -0.595850
     13 N1           1.3730     5.9140     0.9710 N           1 46       -0.522650
     14 C7           2.7340     5.9670     0.8430 C           1 46        0.733850
     15 O5           3.4850     6.9090     1.0130 O           1 46       -0.555250
     16 C8           3.1720     4.6220     0.4810 C          1 46       -0.125600
     17 C9           4.4310     4.1310     0.2130 C          1 46       -0.056500
     18 C10          4.5330     2.7630    -0.0730 C          1 46       -0.103000
     19 C11          3.3950     1.9080    -0.0890 C          1 46       -0.032750
     20 C12          2.1300     2.4590     0.1860 C          1 46       -0.051500
     21 C13          2.0560     3.8110     0.4670 C          1 46       -0.132850
     22 C14          0.9070     4.6370     0.8220 C           1 46        0.736100
     23 O6          -0.2160     4.1980     0.9760 O           1 46       -0.563000
     24 C15          3.5480     0.4650    -0.3560 C          1 46       -0.032750
     25 C16          4.3230     0.0070    -1.4560 C          1 46       -0.103000
     26 C17          4.5360    -1.3570    -1.6960 C          1 46       -0.056500
     27 C18          3.9510    -2.2480    -0.8210 C          1 46       -0.125600
     28 C19          4.0320    -3.7050    -0.7520 C           1 46        0.733850
     29 O7           4.6920    -4.3840    -1.5140 O           1 46       -0.555250
     30 N2           3.2640    -4.0910     0.3120 N           1 46       -0.522650
     31 C20          2.7420    -3.0100     0.9700 C           1 46        0.736100
     32 O8           2.0730    -2.9790     1.9850 O           1 46       -0.563000
     33 C21          3.1730    -1.8240     0.2360 C          1 46       -0.132850
     34 C22          2.9550    -0.4850     0.4980 C          1 46       -0.051500
     35 C23          3.2030    -5.4490     0.8620 C          1 46        0.093950
     36 C24          4.3890    -5.5860     1.8130 C           1 46        0.616350
     37 O9           5.4000    -4.9000     1.8330 O           1 46       -0.533500
     38 O10          4.2420    -6.5830     2.7090 O          1 46       -0.595850
     39 C25          3.2430    -6.5380    -0.2140 C          1 46       -0.049800
     40 S3           2.5150    -8.1460     0.2820 S          1 46       -0.146350
     41 S4           0.5500    -7.6690     0.6600 S          1 46       -0.146350
     42 C26         -0.1370    -7.5360    -1.0290 C          1 46       -0.049800
     43 C27         -1.6160    -7.1500    -0.9980 C          1 46        0.093950
     44 C28         -2.1620    -7.0650    -2.4220 C           1 46        0.616350
     45 O11         -2.7460    -6.1220    -2.9340 O           1 46       -0.533500
     46 O12         -1.9840    -8.2010    -3.1280 O          1 46       -0.595850
     47 N3          -1.9300    -5.8800    -0.3390 N           1 46       -0.522650
     48 C29         -3.1170    -5.6910     0.3160 C           1 46        0.733850
     49 O13         -3.9880    -6.5020     0.5670 O           1 46       -0.555250
     50 C30         -3.2010    -4.2710     0.6330 C          1 46       -0.125600
     51 C31         -4.2040    -3.5630     1.2590 C          1 46       -0.056500
     52 C32         -4.0520    -2.1750     1.3280 C          1 46       -0.103000
     53 C33         -2.9190    -1.5090     0.7790 C          1 46       -0.032750
     54 C34         -1.9080    -2.2810     0.1710 C          1 46       -0.051500
     55 C35         -2.0800    -3.6540     0.1130 C          1 46       -0.132850
     56 C36         -1.2640    -4.6950    -0.5190 C           1 46        0.736100
     57 O14         -0.2180    -4.4800    -1.1030 O           1 46       -0.563000
     58 C37         -2.8700    -0.0330     0.7880 C          1 46       -0.032750
     59 C38         -3.1420     0.6960     1.9790 C          1 46       -0.103000
     60 C39         -3.2510     2.0940     1.9860 C          1 46       -0.056500
     61 C40         -3.0690     2.7450     0.7860 C          1 46       -0.125600
     62 C41         -3.2240     4.1560     0.4340 C           1 46        0.733850
     63 O15         -3.6090     5.0180     1.2010 O           1 46       -0.555250
     64 N4          -2.9230     4.2660    -0.8980 N           1 46       -0.522650
     65 C42         -2.6810     3.0390    -1.4540 C           1 46        0.736100
     66 O16         -2.4960     2.7450    -2.6200 O           1 46       -0.563000
     67 C43         -2.7550     2.0610    -0.3710 C          1 46       -0.132850
     68 C44         -2.6490     0.6820    -0.4050 C          1 46       -0.051500
     69 H1          -6.1740     4.6420    -2.4170 H          1 46        0.450500
     70 H2          -3.1850     6.3230    -0.9410 H          1 46        0.124450
     71 H3          -2.3560     6.7060    -3.2860 H          1 46        0.116325
     72 H4          -2.0740     4.9990    -3.4920 H          1 46        0.116325
     73 H5          -1.2860     8.1020     1.1210 H          1 46        0.116325
     74 H6          -1.3960     6.4080     0.7110 H          1 46        0.116325
     75 H7           1.2030     7.9470     1.3350 H          1 46        0.124450
     76 H8           0.6430     6.0490     4.5030 H          1 46        0.450500
     77 H9           5.3040     4.7750     0.2370 H          1 46        0.166250
     78 H10          5.5240     2.3500    -0.2640 H          1 46        0.149500
     79 H11          1.2270     1.8560     0.1850 H          1 46        0.164000
     80 H12          4.7780     0.7270    -2.1370 H          1 46        0.149500
     81 H13          5.1480    -1.7010    -2.5230 H          1 46        0.166250
     82 H14          2.3700    -0.1930     1.3660 H          1 46        0.164000
     83 H15          2.2920    -5.4900     1.4690 H          1 46        0.124450
     84 H16          5.0560    -6.5490     3.2550 H          1 46        0.450500
     85 H17          4.2760    -6.7500    -0.5110 H          1 46        0.116325
     86 H18          2.7130    -6.2160    -1.1170 H          1 46        0.116325
     87 H19          0.4440    -6.8140    -1.6090 H          1 46        0.116325
     88 H20         -0.0170    -8.5120    -1.5130 H          1 46        0.116325
     89 H21         -2.1960    -7.9380    -0.4980 H          1 46        0.124450
     90 H22         -2.4130    -8.0200    -3.9920 H          1 46        0.450500
     91 H23         -5.0870    -4.0600     1.6480 H          1 46        0.166250
     92 H24         -4.8550    -1.5940     1.7820 H          1 46        0.149500
     93 H25         -1.0260    -1.8240    -0.2690 H          1 46        0.164000
     94 H26         -3.3010     0.1610     2.9160 H          1 46        0.149500
     95 H27         -3.4960     2.6420     2.8900 H          1 46        0.166250
     96 H28         -2.4620     0.1780    -1.3500 H          1 46        0.164000
@<TRIPOS>BOND
     1     1     2 2   
     2     2     3 1   
     3     2     4 1   
     4     3    69 1   
     5     4     5 1   
     6     4    64 1   
     7     4    70 1   
     8     5     6 1   
     9     5    71 1   
    10     5    72 1   
    11     6     7 1   
    12     7     8 1   
    13     8     9 1   
    14     8    73 1   
    15     8    74 1   
    16     9    10 1   
    17     9    13 1   
    18     9    75 1   
    19    10    11 2   
    20    10    12 1   
    21    12    76 1   
    22    13    14 1   
    23    13    22 1   
    24    14    15 2   
    25    14    16 1   
    26    16    17 ar  
    27    16    21 ar  
    28    17    18 ar  
    29    17    77 1   
    30    18    19 ar  
    31    18    78 1   
    32    19    20 ar  
    33    19    24 1   
    34    20    21 ar  
    35    20    79 1   
    36    21    22 1   
    37    22    23 2   
    38    24    25 ar  
    39    24    34 ar  
    40    25    26 ar  
    41    25    80 1   
    42    26    27 ar  
    43    26    81 1   
    44    27    28 1   
    45    27    33 ar  
    46    28    29 2   
    47    28    30 1   
    48    30    31 1   
    49    30    35 1   
    50    31    32 2   
    51    31    33 1   
    52    33    34 ar  
    53    34    82 1   
    54    35    36 1   
    55    35    39 1   
    56    35    83 1   
    57    36    37 2   
    58    36    38 1   
    59    38    84 1   
    60    39    40 1   
    61    39    85 1   
    62    39    86 1   
    63    40    41 1   
    64    41    42 1   
    65    42    43 1   
    66    42    87 1   
    67    42    88 1   
    68    43    44 1   
    69    43    47 1   
    70    43    89 1   
    71    44    45 2   
    72    44    46 1   
    73    46    90 1   
    74    47    48 1   
    75    47    56 1   
    76    48    49 2   
    77    48    50 1   
    78    50    51 ar  
    79    50    55 ar  
    80    51    52 ar  
    81    51    91 1   
    82    52    53 ar  
    83    52    92 1   
    84    53    54 ar  
    85    53    58 1   
    86    54    55 ar  
    87    54    93 1   
    88    55    56 1   
    89    56    57 2   
    90    58    59 ar  
    91    58    68 ar  
    92    59    60 ar  
    93    59    94 1   
    94    60    61 ar  
    95    60    95 1   
    96    61    62 1   
    97    61    67 ar  
    98    62    63 2   
    99    62    64 1   
   100    64    65 1   
   101    65    66 2   
   102    65    67 1   
   103    67    68 ar  
   104    68    96 1   
@<TRIPOS>SUBSTRUCTURE
     1 46          1 TEMP              0 ****  ****    0 ROOT
