@<TRIPOS>MOLECULE
URE
  144   153     1     0     0
SMALL
bcc


@<TRIPOS>ATOM
      1 O           -7.1860    -6.7680    -1.4500 O           0 URE      -0.838800
      2 C           -6.9450    -5.5860    -1.6270 C           0 URE       0.904767
      3 O1          -7.2070    -5.0640    -2.6970 O           0 URE      -0.838800
      4 C1          -6.3300    -4.7680    -0.5200 C          0 URE      -0.041300
      5 C2          -4.8030    -4.8300    -0.6260 C          0 URE       0.022700
      6 S           -4.1570    -6.0880     0.5080 S          0 URE      -0.234433
      7 S1          -2.4350    -6.6210    -0.4720 S          0 URE      -0.234433
      8 C3          -1.4060    -7.1260     0.9320 C          0 URE       0.022700
      9 C4          -0.4600    -8.2540     0.5120 C          0 URE      -0.041300
     10 N            0.9380    -7.8010     0.7090 N           0 URE      -0.493900
     11 C5           1.8760    -8.4100    -0.0580 C           0 URE       0.660533
     12 O2           1.5500    -9.3650    -0.7370 O           0 URE      -0.631933
     13 C6           3.2640    -7.9600    -0.0960 C          0 URE      -0.097600
     14 C7           3.9390    -7.8220    -1.3380 C          0 URE      -0.016417
     15 C8           3.4500    -8.4470    -2.4980 C          0 URE      -0.117833
     16 C9           4.0930    -8.2540    -3.6830 C          0 URE      -0.142167
     17 C10          5.2200    -7.4390    -3.7760 C          0 URE      -0.142167
     18 C11          5.7450    -6.8070    -2.6890 C          0 URE      -0.117833
     19 C12          5.1520    -6.9960    -1.4240 C          0 URE      -0.016417
     20 C13          5.6930    -6.4220    -0.2570 C          0 URE      -0.097600
     21 C14          5.2490    -6.9170     1.0030 C          0 URE      -0.016417
     22 C15          5.9780    -6.6590     2.1780 C          0 URE      -0.117833
     23 C16          5.5060    -7.1200     3.3700 C          0 URE      -0.142167
     24 C17          4.3100    -7.8310     3.4530 C          0 URE      -0.142167
     25 C18          3.5540    -8.1090     2.3530 C          0 URE      -0.117833
     26 C19          3.9960    -7.6800     1.0890 C          0 URE      -0.016417
     27 C20          6.6120    -5.2830    -0.2660 C           0 URE       0.660533
     28 O3           7.6230    -5.3410     0.4060 O           0 URE      -0.631933
     29 N1           6.3750    -4.1660    -0.9970 N           0 URE      -0.493900
     30 C21          7.3500    -3.0630    -0.8540 C          0 URE      -0.041300
     31 C22          6.6100    -1.7240    -0.9250 C          0 URE       0.022700
     32 S2           7.3660    -0.5390     0.2200 S          0 URE      -0.234433
     33 S3           7.0290     1.2140    -0.7880 S          0 URE      -0.234433
     34 C23          6.8780     2.3660     0.6060 C          0 URE       0.022700
     35 C24          7.4370     3.7360     0.2170 C          0 URE      -0.041300
     36 N2           6.4130     4.7720     0.4830 N           0 URE      -0.493900
     37 C25          6.3300     5.7760    -0.4290 C           0 URE       0.660533
     38 O4           7.1720     5.8500    -1.3030 O           0 URE      -0.631933
     39 C26          5.2580     6.7710    -0.3910 C          0 URE      -0.097600
     40 C27          4.7960     7.3620    -1.5970 C          0 URE      -0.016417
     41 C28          5.5640     7.3110    -2.7740 C          0 URE      -0.117833
     42 C29          5.0650     7.8550    -3.9200 C          0 URE      -0.142167
     43 C30          3.8030     8.4470    -3.9580 C          0 URE      -0.142167
     44 C31          3.0110     8.5250    -2.8530 C          0 URE      -0.117833
     45 C32          3.4810     8.0210    -1.6250 C          0 URE      -0.016417
     46 C33          2.7300     8.1390    -0.4390 C          0 URE      -0.097600
     47 C34          3.3960     7.9220     0.8010 C          0 URE      -0.016417
     48 C35          2.8310     8.3600     2.0100 C          0 URE      -0.117833
     49 C36          3.4820     8.1140     3.1810 C          0 URE      -0.142167
     50 C37          4.6910     7.4210     3.2070 C          0 URE      -0.142167
     51 C38          5.2900     6.9610     2.0720 C          0 URE      -0.117833
     52 C39          4.6780     7.2040     0.8280 C          0 URE      -0.016417
     53 C40          1.2860     8.3820    -0.4110 C           0 URE       0.660533
     54 O5           0.8670     9.3580     0.1810 O           0 URE      -0.631933
     55 N3           0.4000     7.5580    -1.0200 N           0 URE      -0.493900
     56 C41         -1.0340     7.8710    -0.8360 C          0 URE      -0.041300
     57 C42         -1.8410     6.5710    -0.8960 C          0 URE       0.022700
     58 S4          -3.1650     6.6080     0.3400 S          0 URE      -0.234433
     59 S5          -4.5780     5.4510    -0.5930 S          0 URE      -0.234433
     60 C43         -5.4310     4.7540     0.8470 C          0 URE       0.022700
     61 C44         -6.9210     4.5810     0.5400 C          0 URE      -0.041300
     62 N4          -7.3130     3.1820     0.8300 N           0 URE      -0.493900
     63 C45         -8.2030     2.6230    -0.0320 C           0 URE       0.660533
     64 O6          -8.7360     3.3300    -0.8660 O           0 URE      -0.631933
     65 C46         -8.5380     1.2030     0.0080 C          0 URE      -0.097600
     66 C47         -8.8640     0.5150    -1.1920 C          0 URE      -0.016417
     67 C48         -9.2430     1.2150    -2.3510 C          0 URE      -0.117833
     68 C49         -9.5050     0.5210    -3.4940 C          0 URE      -0.142167
     69 C50         -9.3940    -0.8670    -3.5480 C          0 URE      -0.142167
     70 C51         -9.0320    -1.6030    -2.4610 C          0 URE      -0.117833
     71 C52         -8.7830    -0.9540    -1.2350 C          0 URE      -0.016417
     72 C53         -8.4670    -1.6750    -0.0670 C          0 URE      -0.097600
     73 C54         -8.5670    -0.9980     1.1850 C          0 URE      -0.016417
     74 C55         -8.6190    -1.7170     2.3900 C          0 URE      -0.117833
     75 C56         -8.6900    -1.0380     3.5700 C          0 URE      -0.142167
     76 C57         -8.6950     0.3550     3.6070 C          0 URE      -0.142167
     77 C58         -8.6350     1.1120     2.4750 C          0 URE      -0.117833
     78 C59         -8.5850     0.4720     1.2240 C          0 URE      -0.016417
     79 C60         -7.9570    -3.0440    -0.0700 C           0 URE       0.660533
     80 O7          -8.6190    -3.9190     0.4540 O           0 URE      -0.631933
     81 N5          -6.7660    -3.3610    -0.6440 N           0 URE      -0.493900
     82 C61         -7.7250     5.5190     1.4020 C           0 URE       0.904767
     83 O8          -7.9840     6.6420     1.0050 O           0 URE      -0.838800
     84 O9          -8.1180     5.1550     2.4980 O           0 URE      -0.838800
     85 C62         -1.2390     8.5300     0.5040 C           0 URE       0.904767
     86 O10         -1.9990     9.4780     0.6070 O           0 URE      -0.838800
     87 O11         -0.6440     8.1150     1.4840 O           0 URE      -0.838800
     88 C63          8.6710     4.0260     1.0310 C           0 URE       0.904767
     89 O12          9.7680     3.6890     0.6180 O           0 URE      -0.838800
     90 O13          8.5730     4.5980     2.1030 O           0 URE      -0.838800
     91 C64          8.0510    -3.1800     0.4750 C           0 URE       0.904767
     92 O14          9.2660    -3.0960     0.5320 O           0 URE      -0.838800
     93 O15          7.4040    -3.3590     1.4920 O           0 URE      -0.838800
     94 C65         -0.7200    -9.4740     1.3570 C           0 URE       0.904767
     95 O16         -1.5380   -10.3030     0.9960 O           0 URE      -0.838800
     96 O17         -0.1130    -9.6320     2.4020 O           0 URE      -0.838800
     97 H           -6.6450    -5.1650     0.4450 H          0 URE       0.090700
     98 H1          -4.5210    -5.0840    -1.6470 H          0 URE       0.076533
     99 H2          -4.3830    -3.8590    -0.3660 H          0 URE       0.076533
    100 H3          -0.8210    -6.2740     1.2770 H          0 URE       0.076533
    101 H4          -2.0460    -7.4750     1.7430 H          0 URE       0.076533
    102 H5          -0.6220    -8.4930    -0.5390 H          0 URE       0.090700
    103 H6           1.1680    -7.1090     1.3490 H          0 URE       0.305833
    104 H7           2.5720    -9.0740    -2.4500 H          0 URE       0.175167
    105 H8           3.7210    -8.7440    -4.5710 H          0 URE       0.120583
    106 H9           5.6920    -7.3050    -4.7380 H          0 URE       0.120583
    107 H10          6.6080    -6.1660    -2.7960 H          0 URE       0.175167
    108 H11          6.9020    -6.1010     2.1360 H          0 URE       0.175167
    109 H12          6.0700    -6.9310     4.2710 H          0 URE       0.120583
    110 H13          3.9710    -8.1730     4.4190 H          0 URE       0.120583
    111 H14          2.6260    -8.6520     2.4510 H          0 URE       0.175167
    112 H15          5.6070    -4.0940    -1.5850 H          0 URE       0.305833
    113 H16          8.0820    -3.1170    -1.6590 H          0 URE       0.090700
    114 H17          6.6660    -1.3330    -1.9410 H          0 URE       0.076533
    115 H18          5.5640    -1.8740    -0.6540 H          0 URE       0.076533
    116 H19          5.8280     2.4680     0.8780 H          0 URE       0.076533
    117 H20          7.4350     1.9770     1.4580 H          0 URE       0.076533
    118 H21          7.6900     3.7380    -0.8440 H          0 URE       0.090700
    119 H22          5.8360     4.7360     1.2620 H          0 URE       0.305833
    120 H23          6.5390     6.8460    -2.7700 H          0 URE       0.175167
    121 H24          5.6610     7.8260    -4.8200 H          0 URE       0.120583
    122 H25          3.4440     8.8560    -4.8910 H          0 URE       0.120583
    123 H26          2.0300     8.9710    -2.9180 H          0 URE       0.175167
    124 H27          1.8880     8.8880     2.0110 H          0 URE       0.175167
    125 H28          3.0530     8.4620     4.1090 H          0 URE       0.120583
    126 H29          5.1710     7.2440     4.1590 H          0 URE       0.120583
    127 H30          6.2210     6.4170     2.1270 H          0 URE       0.175167
    128 H31          0.6910     6.8000    -1.5510 H          0 URE       0.305833
    129 H32         -1.3650     8.5430    -1.6280 H          0 URE       0.090700
    130 H33         -2.2760     6.4610    -1.8900 H          0 URE       0.076533
    131 H34         -1.1820     5.7270    -0.6960 H          0 URE       0.076533
    132 H35         -4.9970     3.7850     1.0900 H          0 URE       0.076533
    133 H36         -5.3130     5.4260     1.6970 H          0 URE       0.076533
    134 H37         -7.1050     4.8010    -0.5110 H          0 URE       0.090700
    135 H38         -6.9570     2.6940     1.5890 H          0 URE       0.305833
    136 H39         -9.3270     2.2910    -2.3340 H          0 URE       0.175167
    137 H40         -9.8060     1.0610    -4.3800 H          0 URE       0.120583
    138 H41         -9.6010    -1.3750    -4.4790 H          0 URE       0.120583
    139 H42         -8.9360    -2.6760    -2.5370 H          0 URE       0.175167
    140 H43         -8.6040    -2.7970     2.3820 H          0 URE       0.175167
    141 H44         -8.7420    -1.5920     4.4960 H          0 URE       0.120583
    142 H45         -8.7480     0.8510     4.5650 H          0 URE       0.120583
    143 H46         -8.6280     2.1900     2.5380 H          0 URE       0.175167
    144 H47         -6.2340    -2.6960    -1.1090 H          0 URE       0.305833
@<TRIPOS>BOND
     1     1     2 1   
     2     2     3 1   
     3     2     4 1   
     4     4     5 1   
     5     4    81 1   
     6     4    97 1   
     7     5     6 1   
     8     5    98 1   
     9     5    99 1   
    10     6     7 1   
    11     7     8 1   
    12     8     9 1   
    13     8   100 1   
    14     8   101 1   
    15     9    10 1   
    16     9    94 1   
    17     9   102 1   
    18    10    11 1   
    19    10   103 1   
    20    11    12 2   
    21    11    13 1   
    22    13    14 ar  
    23    13    26 ar  
    24    14    15 ar  
    25    14    19 ar  
    26    15    16 ar  
    27    15   104 1   
    28    16    17 ar  
    29    16   105 1   
    30    17    18 ar  
    31    17   106 1   
    32    18    19 ar  
    33    18   107 1   
    34    19    20 ar  
    35    20    21 ar  
    36    20    27 1   
    37    21    22 ar  
    38    21    26 ar  
    39    22    23 ar  
    40    22   108 1   
    41    23    24 ar  
    42    23   109 1   
    43    24    25 ar  
    44    24   110 1   
    45    25    26 ar  
    46    25   111 1   
    47    27    28 2   
    48    27    29 1   
    49    29    30 1   
    50    29   112 1   
    51    30    31 1   
    52    30    91 1   
    53    30   113 1   
    54    31    32 1   
    55    31   114 1   
    56    31   115 1   
    57    32    33 1   
    58    33    34 1   
    59    34    35 1   
    60    34   116 1   
    61    34   117 1   
    62    35    36 1   
    63    35    88 1   
    64    35   118 1   
    65    36    37 1   
    66    36   119 1   
    67    37    38 2   
    68    37    39 1   
    69    39    40 ar  
    70    39    52 ar  
    71    40    41 ar  
    72    40    45 ar  
    73    41    42 ar  
    74    41   120 1   
    75    42    43 ar  
    76    42   121 1   
    77    43    44 ar  
    78    43   122 1   
    79    44    45 ar  
    80    44   123 1   
    81    45    46 ar  
    82    46    47 ar  
    83    46    53 1   
    84    47    48 ar  
    85    47    52 ar  
    86    48    49 ar  
    87    48   124 1   
    88    49    50 ar  
    89    49   125 1   
    90    50    51 ar  
    91    50   126 1   
    92    51    52 ar  
    93    51   127 1   
    94    53    54 2   
    95    53    55 1   
    96    55    56 1   
    97    55   128 1   
    98    56    57 1   
    99    56    85 1   
   100    56   129 1   
   101    57    58 1   
   102    57   130 1   
   103    57   131 1   
   104    58    59 1   
   105    59    60 1   
   106    60    61 1   
   107    60   132 1   
   108    60   133 1   
   109    61    62 1   
   110    61    82 1   
   111    61   134 1   
   112    62    63 1   
   113    62   135 1   
   114    63    64 2   
   115    63    65 1   
   116    65    66 ar  
   117    65    78 ar  
   118    66    67 ar  
   119    66    71 ar  
   120    67    68 ar  
   121    67   136 1   
   122    68    69 ar  
   123    68   137 1   
   124    69    70 ar  
   125    69   138 1   
   126    70    71 ar  
   127    70   139 1   
   128    71    72 ar  
   129    72    73 ar  
   130    72    79 1   
   131    73    74 ar  
   132    73    78 ar  
   133    74    75 ar  
   134    74   140 1   
   135    75    76 ar  
   136    75   141 1   
   137    76    77 ar  
   138    76   142 1   
   139    77    78 ar  
   140    77   143 1   
   141    79    80 2   
   142    79    81 1   
   143    81   144 1   
   144    82    83 1   
   145    82    84 1   
   146    85    86 1   
   147    85    87 1   
   148    88    89 1   
   149    88    90 1   
   150    91    92 1   
   151    91    93 1   
   152    94    95 1   
   153    94    96 1   
@<TRIPOS>SUBSTRUCTURE
     1 URE         1 TEMP              0 ****  ****    0 ROOT
