@<TRIPOS>MOLECULE
URE
  177   186     1     0     0
SMALL
bcc


@<TRIPOS>ATOM
      1 C            0.6840     4.1760     1.0120 C          0 URE      -0.208100
      2 C1           1.1750     5.4390     0.3530 C           0 URE       0.582433
      3 O            0.9630     5.6280    -0.8210 O           0 URE      -0.545767
      4 C2           1.9310     6.4650     1.1570 C          0 URE      -0.172733
      5 C3           2.3660     7.6110     0.2420 C          0 URE       0.096167
      6 H            2.9740     8.3180     0.8070 H          0 URE       0.112700
      7 S            3.3310     6.9500    -1.1400 S          0 URE      -0.313533
      8 C4           5.0050     7.0260    -0.4450 C          0 URE       0.007533
      9 C5           5.5860     5.6140    -0.3900 C          0 URE      -0.050300
     10 N            7.0030     5.6280    -0.8080 N           0 URE      -0.497733
     11 C6           7.8920     5.1360     0.0620 C           0 URE       0.656533
     12 O1           8.1480     5.8690     0.9980 O           0 URE      -0.632267
     13 C7           8.5960     3.8770     0.0690 C          0 URE      -0.096100
     14 C8           8.8490     3.2160     1.3020 C          0 URE      -0.015833
     15 C9           8.7550     3.9120     2.5170 C          0 URE      -0.117833
     16 C10          8.9380     3.2410     3.6860 C          0 URE      -0.139417
     17 C11          9.2060     1.8750     3.7040 C          0 URE      -0.139417
     18 C12          9.3120     1.1470     2.5590 C          0 URE      -0.117833
     19 C13          9.1620     1.7820     1.3150 C          0 URE      -0.015833
     20 C14          9.2840     1.0830     0.0930 C          0 URE      -0.096100
     21 C15          9.4330     1.8370    -1.1000 C          0 URE      -0.015833
     22 C16          9.8990     1.2500    -2.2870 C          0 URE      -0.117833
     23 C17          9.9880     2.0060    -3.4150 C          0 URE      -0.139417
     24 C18          9.6130     3.3490    -3.4380 C          0 URE      -0.139417
     25 C19          9.1420     3.9730    -2.3240 C          0 URE      -0.117833
     26 C20          9.0590     3.2580    -1.1190 C          0 URE      -0.015833
     27 C21          9.1630    -0.3770     0.0180 C           0 URE       0.656533
     28 O2           9.7380    -0.9720    -0.8740 O           0 URE      -0.632267
     29 N1           8.4320    -1.0820     0.9130 N           0 URE      -0.497733
     30 C22          8.3540    -2.5460     0.6960 C          0 URE      -0.050300
     31 C23          6.8870    -2.9710     0.7140 C          0 URE       0.007533
     32 S1           6.6630    -4.4570    -0.3050 S          0 URE      -0.313533
     33 C24          5.2560    -5.2140     0.5560 C          0 URE       0.096167
     34 H1           5.5770    -5.5620     1.5380 H          0 URE       0.112700
     35 C25          4.1430    -4.1780     0.7210 C          0 URE      -0.172733
     36 C26          3.6970    -3.6990    -0.6360 C           0 URE       0.582433
     37 C27          2.6620    -2.6090    -0.7480 C          0 URE      -0.208100
     38 O3           4.1680    -4.1880    -1.6340 O           0 URE      -0.545767
     39 S2           4.6320    -6.6200    -0.4090 S          0 URE      -0.313533
     40 C28          3.2360    -7.1210     0.6420 C          0 URE       0.007533
     41 C29          2.7340    -8.5020     0.1970 C          0 URE      -0.050300
     42 N2           1.2780    -8.4280    -0.0480 N           0 URE      -0.497733
     43 C30          0.4950    -9.2250     0.7350 C           0 URE       0.656533
     44 O4           1.0030    -9.9360     1.5810 O           0 URE      -0.632267
     45 C31         -0.9550    -9.2210     0.5540 C          0 URE      -0.096100
     46 C32         -1.8290    -9.3920     1.6540 C          0 URE      -0.015833
     47 C33         -1.3600    -9.9020     2.8750 C          0 URE      -0.117833
     48 C34         -2.2220   -10.0340     3.9200 C          0 URE      -0.139417
     49 C35         -3.5610    -9.6600     3.8040 C          0 URE      -0.139417
     50 C36         -4.0710    -9.1470     2.6510 C          0 URE      -0.117833
     51 C37         -3.2370    -8.9900     1.5340 C          0 URE      -0.015833
     52 C38         -3.7070    -8.4270     0.3190 C          0 URE      -0.096100
     53 C39         -2.9360    -8.6390    -0.8520 C          0 URE      -0.015833
     54 C40         -3.4690    -8.4620    -2.1380 C          0 URE      -0.117833
     55 C41         -2.6940    -8.7090    -3.2290 C          0 URE      -0.139417
     56 C42         -1.3640    -9.1070    -3.1140 C          0 URE      -0.139417
     57 C43         -0.7760    -9.2650    -1.8970 C          0 URE      -0.117833
     58 C44         -1.5310    -9.0550    -0.7320 C          0 URE      -0.015833
     59 C45         -4.9390    -7.6280     0.2900 C           0 URE       0.656533
     60 O5          -5.7970    -7.8170     1.1310 O           0 URE      -0.632267
     61 N3          -5.1330    -6.6780    -0.6640 N           0 URE      -0.497733
     62 C46         -6.3870    -5.8930    -0.5720 C          0 URE      -0.050300
     63 C47         -6.0300    -4.4210    -0.3460 C          0 URE       0.007533
     64 S3          -7.5290    -3.5050     0.1100 S          0 URE      -0.313533
     65 C48         -6.9420    -1.8030    -0.1230 C          0 URE       0.096167
     66 H2          -6.4250    -1.7240    -1.0790 H          0 URE       0.112700
     67 C49         -5.9820    -1.4340     1.0100 C          0 URE      -0.172733
     68 C50         -6.6980    -1.5450     2.3310 C           0 URE       0.582433
     69 C51         -5.9950    -1.1520     3.6050 C          0 URE      -0.208100
     70 O6          -7.8360    -1.9480     2.3700 O           0 URE      -0.545767
     71 S4          -8.3620    -0.6750    -0.1070 S          0 URE      -0.313533
     72 C52         -7.5100     0.9260    -0.0790 C          0 URE       0.007533
     73 C53         -8.4880     2.0220    -0.5160 C          0 URE      -0.050300
     74 N4          -7.7170     3.2800    -0.6960 N           0 URE      -0.497733
     75 C54         -8.0440     4.3140     0.1120 C           0 URE       0.656533
     76 O7          -9.0340     4.2090     0.8110 O           0 URE      -0.632267
     77 C55         -7.2700     5.5490     0.1890 C          0 URE      -0.096100
     78 C56         -6.7950     6.0210     1.4380 C          0 URE      -0.015833
     79 C57         -7.3250     5.5330     2.6420 C          0 URE      -0.117833
     80 C58         -6.8000     5.9460     3.8270 C          0 URE      -0.139417
     81 C59         -5.7380     6.8500     3.8730 C          0 URE      -0.139417
     82 C60         -5.1960     7.3740     2.7400 C          0 URE      -0.117833
     83 C61         -5.7110     7.0110     1.4860 C          0 URE      -0.015833
     84 C62         -5.2100     7.5550     0.2870 C          0 URE      -0.096100
     85 C63         -5.9570     7.3660    -0.9070 C          0 URE      -0.015833
     86 C64         -5.6950     8.1340    -2.0540 C          0 URE      -0.117833
     87 C65         -6.3980     7.8930    -3.1930 C          0 URE      -0.139417
     88 C66         -7.3730     6.9010    -3.2530 C          0 URE      -0.139417
     89 C67         -7.6730     6.1240    -2.1770 C          0 URE      -0.117833
     90 C68         -6.9920     6.3270    -0.9660 C          0 URE      -0.015833
     91 C69         -3.9130     8.2310     0.2050 C           0 URE       0.656533
     92 O8          -3.8020     9.1970    -0.5260 O           0 URE      -0.632267
     93 N5          -2.8310     7.8210     0.9120 N           0 URE      -0.497733
     94 C70         -1.5980     8.6200     0.7120 C          0 URE      -0.050300
     95 C71         -0.4040     7.6700     0.5780 C          0 URE       0.007533
     96 S5           0.8970     8.4590    -0.4140 S          0 URE      -0.313533
     97 C72         -1.7300     9.4430    -0.5440 C           0 URE       0.901267
     98 O9          -1.7040    10.6610    -0.4790 O           0 URE      -0.838633
     99 O10         -1.8610     8.8930    -1.6230 O           0 URE      -0.838633
    100 C73         -9.1410     1.6340    -1.8170 C           0 URE       0.901267
    101 O11        -10.1810     0.9970    -1.8110 O           0 URE      -0.838633
    102 O12         -8.6300     1.9560    -2.8760 O           0 URE      -0.838633
    103 C74         -7.1660    -6.0330    -1.8550 C           0 URE       0.901267
    104 O13         -6.7270    -6.7180    -2.7630 O           0 URE      -0.838633
    105 O14         -8.2350    -5.4610    -1.9850 O           0 URE      -0.838633
    106 C75          3.4380    -8.9110    -1.0710 C           0 URE       0.901267
    107 O15          4.4830    -9.5360    -1.0130 O           0 URE      -0.838633
    108 O16          2.9630    -8.6160    -2.1540 O           0 URE      -0.838633
    109 C76          8.9630    -2.8920    -0.6390 C           0 URE       0.901267
    110 O17         10.0230    -3.4920    -0.6880 O           0 URE      -0.838633
    111 O18          8.3950    -2.5710    -1.6690 O           0 URE      -0.838633
    112 C77          5.4880     5.0880     1.0190 C           0 URE       0.901267
    113 O19          4.8340     4.0860     1.2510 O           0 URE      -0.838633
    114 O20          6.0610     5.6660     1.9270 O           0 URE      -0.838633
    115 H3           0.1640     3.5610     0.2780 H          0 URE       0.066144
    116 H4           1.5330     3.6220     1.4140 H          0 URE       0.066144
    117 H5           0.0000     4.4310     1.8220 H          0 URE       0.066144
    118 H6           1.2870     6.8540     1.9460 H          0 URE       0.079367
    119 H7           2.8110     6.0010     1.6030 H          0 URE       0.079367
    120 H8           5.6330     7.6550    -1.0760 H          0 URE       0.077283
    121 H9           4.9630     7.4430     0.5610 H          0 URE       0.077283
    122 H10          5.0190     4.9640    -1.0560 H          0 URE       0.088533
    123 H11          7.2740     5.9760    -1.6720 H          0 URE       0.306000
    124 H12          8.5410     4.9700     2.5240 H          0 URE       0.170167
    125 H13          8.8740     3.7800     4.6200 H          0 URE       0.123917
    126 H14          9.3330     1.3780     4.6540 H          0 URE       0.123917
    127 H15          9.5110     0.0870     2.6060 H          0 URE       0.170167
    128 H16         10.1840     0.2090    -2.3050 H          0 URE       0.170167
    129 H17         10.3610     1.5520    -4.3210 H          0 URE       0.123917
    130 H18          9.6990     3.9060    -4.3590 H          0 URE       0.123917
    131 H19          8.8350     5.0070    -2.3660 H          0 URE       0.170167
    132 H20          7.9820    -0.6520     1.6570 H          0 URE       0.306000
    133 H21          8.8940    -3.0620     1.4900 H          0 URE       0.088533
    134 H22          6.5850    -3.1860     1.7400 H          0 URE       0.077283
    135 H23          6.2710    -2.1640     0.3180 H          0 URE       0.077283
    136 H24          3.3000    -4.6310     1.2420 H          0 URE       0.079367
    137 H25          4.5170    -3.3330     1.3000 H          0 URE       0.079367
    138 H26          3.1580    -1.6380    -0.7700 H          0 URE       0.066144
    139 H27          2.0890    -2.7450    -1.6640 H          0 URE       0.066144
    140 H28          1.9920    -2.6550     0.1110 H          0 URE       0.066144
    141 H29          3.5620    -7.1700     1.6810 H          0 URE       0.077283
    142 H30          2.4300    -6.3940     0.5470 H          0 URE       0.077283
    143 H31          2.9350    -9.2330     0.9800 H          0 URE       0.088533
    144 H32          0.9000    -7.8460    -0.7260 H          0 URE       0.306000
    145 H33         -0.3240   -10.1880     2.9840 H          0 URE       0.170167
    146 H34         -1.8630   -10.4350     4.8570 H          0 URE       0.123917
    147 H35         -4.2130    -9.7820     4.6550 H          0 URE       0.123917
    148 H36         -5.1110    -8.8620     2.5970 H          0 URE       0.170167
    149 H37         -4.4900    -8.1310    -2.2610 H          0 URE       0.170167
    150 H38         -3.1230    -8.5930    -4.2140 H          0 URE       0.123917
    151 H39         -0.7870    -9.2940    -4.0080 H          0 URE       0.123917
    152 H40          0.2630    -9.5510    -1.8270 H          0 URE       0.170167
    153 H41         -4.4840    -6.5220    -1.3670 H          0 URE       0.306000
    154 H42         -6.9860    -6.2560     0.2630 H          0 URE       0.088533
    155 H43         -5.2970    -4.3430     0.4580 H          0 URE       0.077283
    156 H44         -5.6120    -4.0020    -1.2620 H          0 URE       0.077283
    157 H45         -5.1300    -2.1130     1.0000 H          0 URE       0.079367
    158 H46         -5.6330    -0.4110     0.8710 H          0 URE       0.079367
    159 H47         -6.1700    -0.0950     3.8060 H          0 URE       0.066144
    160 H48         -6.3810    -1.7480     4.4320 H          0 URE       0.066144
    161 H49         -4.9240    -1.3290     3.4980 H          0 URE       0.066144
    162 H50         -7.1570     1.1330     0.9310 H          0 URE       0.077283
    163 H51         -6.6620     0.9000    -0.7640 H          0 URE       0.077283
    164 H52         -9.2490     2.1640     0.2520 H          0 URE       0.088533
    165 H53         -7.0140     3.3550    -1.3610 H          0 URE       0.306000
    166 H54         -8.1470     4.8320     2.6280 H          0 URE       0.170167
    167 H55         -7.2130     5.5670     4.7500 H          0 URE       0.123917
    168 H56         -5.3370     7.1420     4.8320 H          0 URE       0.123917
    169 H57         -4.3710     8.0670     2.8060 H          0 URE       0.170167
    170 H58         -4.9430     8.9080    -2.0310 H          0 URE       0.170167
    171 H59         -6.1960     8.4860    -4.0720 H          0 URE       0.123917
    172 H60         -7.9070     6.7450    -4.1790 H          0 URE       0.123917
    173 H61         -8.4290     5.3560    -2.2530 H          0 URE       0.170167
    174 H62         -2.8620     7.0570     1.5090 H          0 URE       0.306000
    175 H63         -1.4470     9.2780     1.5670 H          0 URE       0.088533
    176 H64         -0.0130     7.4380     1.5690 H          0 URE       0.077283
    177 H65         -0.7250     6.7500     0.0900 H          0 URE       0.077283
@<TRIPOS>BOND
     1     1     2 1   
     2     1   115 1   
     3     1   116 1   
     4     1   117 1   
     5     2     3 2   
     6     2     4 1   
     7     4     5 1   
     8     4   118 1   
     9     4   119 1   
    10     5     6 1   
    11     5     7 1   
    12     5    96 1   
    13     7     8 1   
    14     8     9 1   
    15     8   120 1   
    16     8   121 1   
    17     9    10 1   
    18     9   112 1   
    19     9   122 1   
    20    10    11 1   
    21    10   123 1   
    22    11    12 2   
    23    11    13 1   
    24    13    14 ar  
    25    13    26 ar  
    26    14    15 ar  
    27    14    19 ar  
    28    15    16 ar  
    29    15   124 1   
    30    16    17 ar  
    31    16   125 1   
    32    17    18 ar  
    33    17   126 1   
    34    18    19 ar  
    35    18   127 1   
    36    19    20 ar  
    37    20    21 ar  
    38    20    27 1   
    39    21    22 ar  
    40    21    26 ar  
    41    22    23 ar  
    42    22   128 1   
    43    23    24 ar  
    44    23   129 1   
    45    24    25 ar  
    46    24   130 1   
    47    25    26 ar  
    48    25   131 1   
    49    27    28 2   
    50    27    29 1   
    51    29    30 1   
    52    29   132 1   
    53    30    31 1   
    54    30   109 1   
    55    30   133 1   
    56    31    32 1   
    57    31   134 1   
    58    31   135 1   
    59    32    33 1   
    60    33    34 1   
    61    33    35 1   
    62    33    39 1   
    63    35    36 1   
    64    35   136 1   
    65    35   137 1   
    66    36    37 1   
    67    36    38 2   
    68    37   138 1   
    69    37   139 1   
    70    37   140 1   
    71    39    40 1   
    72    40    41 1   
    73    40   141 1   
    74    40   142 1   
    75    41    42 1   
    76    41   106 1   
    77    41   143 1   
    78    42    43 1   
    79    42   144 1   
    80    43    44 2   
    81    43    45 1   
    82    45    46 ar  
    83    45    58 ar  
    84    46    47 ar  
    85    46    51 ar  
    86    47    48 ar  
    87    47   145 1   
    88    48    49 ar  
    89    48   146 1   
    90    49    50 ar  
    91    49   147 1   
    92    50    51 ar  
    93    50   148 1   
    94    51    52 ar  
    95    52    53 ar  
    96    52    59 1   
    97    53    54 ar  
    98    53    58 ar  
    99    54    55 ar  
   100    54   149 1   
   101    55    56 ar  
   102    55   150 1   
   103    56    57 ar  
   104    56   151 1   
   105    57    58 ar  
   106    57   152 1   
   107    59    60 2   
   108    59    61 1   
   109    61    62 1   
   110    61   153 1   
   111    62    63 1   
   112    62   103 1   
   113    62   154 1   
   114    63    64 1   
   115    63   155 1   
   116    63   156 1   
   117    64    65 1   
   118    65    66 1   
   119    65    67 1   
   120    65    71 1   
   121    67    68 1   
   122    67   157 1   
   123    67   158 1   
   124    68    69 1   
   125    68    70 2   
   126    69   159 1   
   127    69   160 1   
   128    69   161 1   
   129    71    72 1   
   130    72    73 1   
   131    72   162 1   
   132    72   163 1   
   133    73    74 1   
   134    73   100 1   
   135    73   164 1   
   136    74    75 1   
   137    74   165 1   
   138    75    76 2   
   139    75    77 1   
   140    77    78 ar  
   141    77    90 ar  
   142    78    79 ar  
   143    78    83 ar  
   144    79    80 ar  
   145    79   166 1   
   146    80    81 ar  
   147    80   167 1   
   148    81    82 ar  
   149    81   168 1   
   150    82    83 ar  
   151    82   169 1   
   152    83    84 ar  
   153    84    85 ar  
   154    84    91 1   
   155    85    86 ar  
   156    85    90 ar  
   157    86    87 ar  
   158    86   170 1   
   159    87    88 ar  
   160    87   171 1   
   161    88    89 ar  
   162    88   172 1   
   163    89    90 ar  
   164    89   173 1   
   165    91    92 2   
   166    91    93 1   
   167    93    94 1   
   168    93   174 1   
   169    94    95 1   
   170    94    97 1   
   171    94   175 1   
   172    95    96 1   
   173    95   176 1   
   174    95   177 1   
   175    97    98 1   
   176    97    99 1   
   177   100   101 1   
   178   100   102 1   
   179   103   104 1   
   180   103   105 1   
   181   106   107 1   
   182   106   108 1   
   183   109   110 1   
   184   109   111 1   
   185   112   113 1   
   186   112   114 1   
@<TRIPOS>SUBSTRUCTURE
     1 URE         1 TEMP              0 ****  ****    0 ROOT
