@<TRIPOS>MOLECULE
ASB
  118   124     1     0     0
SMALL
bcc


@<TRIPOS>ATOM
      1 C1          -0.0710    -7.8600    -1.9120 C          1 ASB      -0.072550
      2 C2          -0.8760    -6.8790    -1.0960 C          1 ASB      -0.018550
      3 C3          -2.0220    -7.3580    -0.4490 C          1 ASB      -0.129000
      4 C4          -2.8550    -6.5240     0.3090 C          1 ASB      -0.018550
      5 C5          -4.0650    -7.1490     0.9570 C          1 ASB      -0.072550
      6 C6          -2.5190    -5.1610     0.4670 C          1 ASB      -0.150050
      7 C7          -3.4000    -4.2710     1.3310 C          1 ASB       0.130050
      8 N1          -4.3470    -3.4890     0.5430 N           1 ASB      -0.506900
      9 C8          -4.2710    -2.1170     0.4770 C           1 ASB       0.653200
     10 O1          -3.3630    -1.4670     0.9910 O           1 ASB      -0.581850
     11 C9          -5.2910    -1.3400    -0.2990 C          1 ASB      -0.019400
     12 C10         -5.9990    -1.9070    -1.3600 C          1 ASB      -0.107000
     13 C11         -6.7230    -1.0870    -2.2190 C          1 ASB       0.004500
     14 C12         -6.6470     0.2930    -2.0750 C          1 ASB      -0.090250
     15 C13         -5.9040     0.8430    -1.0240 C          1 ASB      -0.008050
     16 C14         -5.5500     2.2760    -0.9630 C          1 ASB      -0.008050
     17 C15         -6.4240     3.2400    -0.4450 C          1 ASB      -0.090250
     18 C16         -5.9710     4.5310    -0.2090 C          1 ASB       0.004500
     19 C17         -4.6390     4.8430    -0.4470 C          1 ASB      -0.107000
     20 C18         -3.7890     3.8810    -0.9990 C          1 ASB      -0.019400
     21 C19         -2.3110     4.1200    -1.1050 C           1 ASB       0.653200
     22 O2          -1.5730     3.1440    -1.0100 O           1 ASB      -0.581850
     23 N2          -1.8680     5.4040    -1.3140 N           1 ASB      -0.506900
     24 C20         -0.4720     5.7080    -1.6090 C          1 ASB       0.130050
     25 C21          0.4790     5.6830    -0.4170 C          1 ASB      -0.150050
     26 C22          0.2190     6.4940     0.7130 C          1 ASB      -0.018550
     27 C23         -1.0390     7.3100     0.8690 C          1 ASB      -0.072550
     28 C24          1.1740     6.5830     1.7380 C          1 ASB      -0.129000
     29 C25          2.4270     5.9640     1.6450 C          1 ASB      -0.018550
     30 C26          3.4290     6.2460     2.7370 C          1 ASB      -0.072550
     31 C27          2.7370     5.1960     0.5010 C          1 ASB      -0.150050
     32 C28          4.1540     4.6800     0.3060 C          1 ASB       0.130050
     33 N3           4.3750     3.4040     0.9740 N           1 ASB      -0.506900
     34 C29          5.2870     2.4980     0.4720 C           1 ASB       0.653200
     35 O3           5.7930     2.5820    -0.6380 O           1 ASB      -0.581850
     36 C30          5.5980     1.3000     1.3080 C          1 ASB      -0.019400
     37 C31          5.8300     1.4560     2.6760 C          1 ASB      -0.107000
     38 C32          6.0570     0.3430     3.4690 C          1 ASB       0.004500
     39 C33          5.9890    -0.9180     2.8970 C          1 ASB      -0.090250
     40 C34          5.7300    -1.0640     1.5240 C          1 ASB      -0.008050
     41 C35          5.4510    -2.3940     0.9480 C          1 ASB      -0.008050
     42 C36          6.4550    -3.3400     0.7030 C          1 ASB      -0.090250
     43 C37          6.1490    -4.5270     0.0430 C          1 ASB       0.004500
     44 C38          4.8600    -4.7380    -0.4280 C          1 ASB      -0.107000
     45 C39          3.8810    -3.7880    -0.1610 C          1 ASB      -0.019400
     46 C40          2.6000    -3.7750    -0.9110 C           1 ASB       0.653200
     47 O4           2.2710    -2.6840    -1.3710 O           1 ASB      -0.581850
     48 N4           1.8550    -4.9240    -1.0020 N           1 ASB      -0.506900
     49 C41          0.6340    -4.9710    -1.7980 C          1 ASB       0.130050
     50 C42         -0.5490    -5.5070    -1.0080 C          1 ASB      -0.150050
     51 C43         -1.3540    -4.6530    -0.1910 C          1 ASB      -0.017800
     52 C44         -1.0160    -3.1860    -0.0680 C          1 ASB      -0.070300
     53 N5           4.1580    -2.6830     0.6010 N          1 ASB       0.064150
     54 C45          3.0160    -1.8660     1.1090 C          1 ASB      -0.040650
     55 N6           5.6100     0.0520     0.7280 N          1 ASB       0.064150
     56 C46          5.5890    -0.0440    -0.7660 C          1 ASB      -0.040650
     57 C47          1.7290     4.9850    -0.4910 C          1 ASB      -0.017800
     58 C48          2.0210     4.0890    -1.6760 C          1 ASB      -0.070300
     59 N7          -4.2750     2.6380    -1.3280 N          1 ASB       0.064150
     60 C49         -3.4410     1.7370    -2.1810 C          1 ASB      -0.040650
     61 N8          -5.3520     0.0160    -0.0800 N          1 ASB       0.064150
     62 C50         -4.9400     0.5640     1.2510 C          1 ASB      -0.040650
     63 H1          -0.2310    -7.6830    -2.9800 H          1 ASB       0.060533
     64 H2           0.9950    -7.7750    -1.6780 H          1 ASB       0.060533
     65 H3          -0.3580    -8.8950    -1.6960 H          1 ASB       0.060533
     66 H4          -2.2790    -8.4150    -0.5450 H          1 ASB       0.166500
     67 H5          -4.9660    -6.5720     0.7270 H          1 ASB       0.060533
     68 H6          -3.9260    -7.2040     2.0420 H          1 ASB       0.060533
     69 H7          -4.2400    -8.1670     0.5920 H          1 ASB       0.060533
     70 H8          -2.7910    -3.6250     1.9710 H          1 ASB       0.092200
     71 H9          -3.9980    -4.8580     2.0340 H          1 ASB       0.092200
     72 H10         -5.0970    -4.0260     0.1240 H          1 ASB       0.337000
     73 H11         -5.9700    -2.9760    -1.5630 H          1 ASB       0.218000
     74 H12         -7.2880    -1.5240    -3.0460 H          1 ASB       0.225500
     75 H13         -7.1390     0.9280    -2.8140 H          1 ASB       0.216000
     76 H14         -7.4540     2.9890    -0.1860 H          1 ASB       0.216000
     77 H15         -6.6430     5.2830     0.2120 H          1 ASB       0.225500
     78 H16         -4.2740     5.8300    -0.1650 H          1 ASB       0.218000
     79 H17         -2.5080     6.1720    -1.4840 H          1 ASB       0.337000
     80 H18         -0.4450     6.7150    -2.0440 H          1 ASB       0.092200
     81 H19         -0.1720     5.0280    -2.4090 H          1 ASB       0.092200
     82 H20         -0.9460     8.0410     1.6800 H          1 ASB       0.060533
     83 H21         -1.2510     7.8810    -0.0400 H          1 ASB       0.060533
     84 H22         -1.8840     6.6580     1.1080 H          1 ASB       0.060533
     85 H23          0.9620     7.2130     2.6040 H          1 ASB       0.166500
     86 H24          4.1650     6.9780     2.3910 H          1 ASB       0.060533
     87 H25          2.9420     6.6520     3.6310 H          1 ASB       0.060533
     88 H26          3.9400     5.3310     3.0490 H          1 ASB       0.060533
     89 H27          4.4130     4.6150    -0.7560 H          1 ASB       0.092200
     90 H28          4.8820     5.3870     0.7200 H          1 ASB       0.092200
     91 H29          4.0200     3.3500     1.9210 H          1 ASB       0.337000
     92 H30          5.8720     2.4490     3.1260 H          1 ASB       0.218000
     93 H31          6.2680     0.4590     4.5340 H          1 ASB       0.225500
     94 H32          6.1220    -1.7910     3.5400 H          1 ASB       0.216000
     95 H33          7.4900    -3.1580     1.0020 H          1 ASB       0.216000
     96 H34          6.9340    -5.2600    -0.1620 H          1 ASB       0.225500
     97 H35          4.6500    -5.6080    -1.0490 H          1 ASB       0.218000
     98 H36          2.1540    -5.8080    -0.6020 H          1 ASB       0.337000
     99 H37          0.3940    -3.9880    -2.2180 H          1 ASB       0.092200
    100 H38          0.8510    -5.5960    -2.6690 H          1 ASB       0.092200
    101 H39         -1.1510    -2.8260     0.9540 H          1 ASB       0.049033
    102 H40          0.0280    -2.9730    -0.2840 H          1 ASB       0.049033
    103 H41         -1.6290    -2.6020    -0.7600 H          1 ASB       0.049033
    104 H42          3.2470    -1.5200     2.1190 H          1 ASB       0.110867
    105 H43          2.1180    -2.4830     1.1890 H          1 ASB       0.110867
    106 H44          2.8730    -1.0200     0.4340 H          1 ASB       0.110867
    107 H45          6.5080     0.4080    -1.1450 H          1 ASB       0.110867
    108 H46          4.6800     0.4400    -1.1310 H          1 ASB       0.110867
    109 H47          5.5750    -1.0810    -1.0980 H          1 ASB       0.110867
    110 H48          1.1460     3.4850    -1.9350 H          1 ASB       0.049033
    111 H49          2.8000     3.3540    -1.4600 H          1 ASB       0.049033
    112 H50          2.3280     4.6890    -2.5380 H          1 ASB       0.049033
    113 H51         -2.8490     1.0970    -1.5220 H          1 ASB       0.110867
    114 H52         -4.0910     1.1310    -2.8150 H          1 ASB       0.110867
    115 H53         -2.8280     2.3310    -2.8630 H          1 ASB       0.110867
    116 H54         -5.0790    -0.1940     2.0260 H          1 ASB       0.110867
    117 H55         -3.9070     0.9110     1.1750 H          1 ASB       0.110867
    118 H56         -5.6030     1.3920     1.5130 H          1 ASB       0.110867
@<TRIPOS>BOND
     1     1     2 1   
     2     1    63 1   
     3     1    64 1   
     4     1    65 1   
     5     2     3 ar  
     6     2    50 ar  
     7     3     4 ar  
     8     3    66 1   
     9     4     5 1   
    10     4     6 ar  
    11     5    67 1   
    12     5    68 1   
    13     5    69 1   
    14     6     7 1   
    15     6    51 ar  
    16     7     8 1   
    17     7    70 1   
    18     7    71 1   
    19     8     9 1   
    20     8    72 1   
    21     9    10 2   
    22     9    11 1   
    23    11    12 2   
    24    11    61 1   
    25    12    13 1   
    26    12    73 1   
    27    13    14 2   
    28    13    74 1   
    29    14    15 1   
    30    14    75 1   
    31    15    16 2   
    32    15    61 1   
    33    16    17 1   
    34    16    59 1   
    35    17    18 2   
    36    17    76 1   
    37    18    19 1   
    38    18    77 1   
    39    19    20 2   
    40    19    78 1   
    41    20    21 1   
    42    20    59 1   
    43    21    22 2   
    44    21    23 1   
    45    23    24 1   
    46    23    79 1   
    47    24    25 1   
    48    24    80 1   
    49    24    81 1   
    50    25    26 ar  
    51    25    57 ar  
    52    26    27 1   
    53    26    28 ar  
    54    27    82 1   
    55    27    83 1   
    56    27    84 1   
    57    28    29 ar  
    58    28    85 1   
    59    29    30 1   
    60    29    31 ar  
    61    30    86 1   
    62    30    87 1   
    63    30    88 1   
    64    31    32 1   
    65    31    57 ar  
    66    32    33 1   
    67    32    89 1   
    68    32    90 1   
    69    33    34 1   
    70    33    91 1   
    71    34    35 2   
    72    34    36 1   
    73    36    37 2   
    74    36    55 1   
    75    37    38 1   
    76    37    92 1   
    77    38    39 2   
    78    38    93 1   
    79    39    40 1   
    80    39    94 1   
    81    40    41 2   
    82    40    55 1   
    83    41    42 1   
    84    41    53 1   
    85    42    43 2   
    86    42    95 1   
    87    43    44 1   
    88    43    96 1   
    89    44    45 2   
    90    44    97 1   
    91    45    46 1   
    92    45    53 1   
    93    46    47 2   
    94    46    48 1   
    95    48    49 1   
    96    48    98 1   
    97    49    50 1   
    98    49    99 1   
    99    49   100 1   
   100    50    51 ar  
   101    51    52 1   
   102    52   101 1   
   103    52   102 1   
   104    52   103 1   
   105    53    54 1   
   106    54   104 1   
   107    54   105 1   
   108    54   106 1   
   109    55    56 1   
   110    56   107 1   
   111    56   108 1   
   112    56   109 1   
   113    57    58 1   
   114    58   110 1   
   115    58   111 1   
   116    58   112 1   
   117    59    60 1   
   118    60   113 1   
   119    60   114 1   
   120    60   115 1   
   121    61    62 1   
   122    62   116 1   
   123    62   117 1   
   124    62   118 1   
@<TRIPOS>SUBSTRUCTURE
     1 ASB         1 TEMP              0 ****  ****    0 ROOT
