@<TRIPOS>MOLECULE
14
  112   122     1     0     0
SMALL
bcc


@<TRIPOS>ATOM
      1 C1          -8.7740    -2.6040     0.3910 C          1 14       -0.112500
      2 C2          -9.0660    -1.2350     0.4410 C          1 14       -0.112500
      3 C3          -8.9350    -0.4310    -0.6990 C          1 14       -0.085000
      4 C4          -8.4810    -1.0240    -1.8860 C          1 14       -0.112500
      5 C5          -8.1880    -2.3930    -1.9360 C          1 14       -0.112500
      6 C6          -8.3430    -3.2010    -0.8010 C          1 14       -0.085000
      7 C7          -8.0860    -4.6930    -0.8680 C          1 14       -0.122000
      8 C8          -6.6180    -5.0550    -0.7670 C          1 14        0.078000
      9 C9          -5.8760    -5.3850    -1.8990 C          1 14       -0.148000
     10 C10         -4.5100    -5.6390    -1.7900 C          1 14        0.005500
     11 N1          -3.8710    -5.5520    -0.5940 N          1 14       -0.000000
     12 C11         -4.5960    -5.3040     0.5280 C          1 14        0.005500
     13 C12         -5.9630    -5.0460     0.4620 C          1 14       -0.148000
     14 C13         -2.4180    -5.6070    -0.5250 C          1 14       -0.040000
     15 C14         -1.7740    -6.1230     0.6020 C          1 14       -0.101000
     16 C15         -0.3820    -5.9850     0.7370 C          1 14       -0.095000
     17 C16          0.3890    -5.3270    -0.2380 C          1 14       -0.013000
     18 C17         -0.2760    -4.8720    -1.3910 C          1 14       -0.095000
     19 C18         -1.6640    -5.0060    -1.5390 C          1 14       -0.101000
     20 C19          1.8230    -5.0280    -0.0320 C          1 14       -0.013000
     21 C20          2.7810    -5.2440    -1.0390 C          1 14       -0.095000
     22 C21          4.1110    -4.8120    -0.8930 C          1 14       -0.101000
     23 C22          4.5040    -4.1570     0.2770 C          1 14       -0.040000
     24 C23          3.5860    -3.9880     1.3190 C          1 14       -0.101000
     25 C24          2.2620    -4.4230     1.1600 C          1 14       -0.095000
     26 N2           5.8090    -3.5190     0.3720 N          1 14       -0.000000
     27 C25          6.4460    -3.4210     1.5680 C          1 14        0.005500
     28 C26          7.5910    -2.6400     1.7150 C          1 14       -0.148000
     29 C27          8.1160    -1.9580     0.6200 C          1 14        0.078000
     30 C28          7.4970    -2.1310    -0.6160 C          1 14       -0.148000
     31 C29          6.3530    -2.9190    -0.7200 C          1 14        0.005500
     32 C30          9.3100    -1.0360     0.7680 C          1 14       -0.122000
     33 C31          8.9350     0.4310     0.8090 C          1 14       -0.085000
     34 C32          9.0660     1.2350    -0.3320 C          1 14       -0.112500
     35 C33          8.7740     2.6040    -0.2820 C          1 14       -0.112500
     36 C34          8.3430     3.2010     0.9100 C          1 14       -0.085000
     37 C35          8.1880     2.3930     2.0450 C          1 14       -0.112500
     38 C36          8.4800     1.0240     1.9950 C          1 14       -0.112500
     39 C37          8.0860     4.6930     0.9780 C          1 14       -0.122000
     40 C38          6.6180     5.0550     0.8770 C          1 14        0.078000
     41 C39          5.9630     5.0460    -0.3530 C          1 14       -0.148000
     42 C40          4.5960     5.3040    -0.4190 C          1 14        0.005500
     43 N3           3.8710     5.5520     0.7030 N          1 14       -0.000000
     44 C41          4.5100     5.6400     1.8990 C          1 14        0.005500
     45 C42          5.8760     5.3860     2.0090 C          1 14       -0.148000
     46 C43          2.4180     5.6070     0.6340 C          1 14       -0.040000
     47 C44          1.7740     6.1240    -0.4930 C          1 14       -0.101000
     48 C45          0.3820     5.9850    -0.6280 C          1 14       -0.095000
     49 C46         -0.3890     5.3270     0.3470 C          1 14       -0.013000
     50 C47          0.2760     4.8720     1.5000 C          1 14       -0.095000
     51 C48          1.6640     5.0060     1.6480 C          1 14       -0.101000
     52 C49         -1.8230     5.0280     0.1410 C          1 14       -0.013000
     53 C50         -2.7810     5.2450     1.1480 C          1 14       -0.095000
     54 C51         -4.1110     4.8120     1.0020 C          1 14       -0.101000
     55 C52         -4.5040     4.1570    -0.1680 C          1 14       -0.040000
     56 C53         -3.5860     3.9880    -1.2100 C          1 14       -0.101000
     57 C54         -2.2620     4.4230    -1.0510 C          1 14       -0.095000
     58 N4          -5.8090     3.5190    -0.2620 N          1 14       -0.000000
     59 C55         -6.4460     3.4210    -1.4580 C          1 14        0.005500
     60 C56         -7.5910     2.6400    -1.6060 C          1 14       -0.148000
     61 C57         -8.1160     1.9580    -0.5100 C          1 14        0.078000
     62 C58         -7.4970     2.1310     0.7250 C          1 14       -0.148000
     63 C59         -6.3530     2.9190     0.8290 C          1 14        0.005500
     64 C60         -9.3100     1.0360    -0.6580 C          1 14       -0.122000
     65 H1          -8.9310    -3.2050     1.2850 H          1 14        0.148500
     66 H2          -9.4420    -0.8140     1.3730 H          1 14        0.148500
     67 H3          -8.3940    -0.4350    -2.7960 H          1 14        0.148500
     68 H4          -7.8820    -2.8300    -2.8840 H          1 14        0.148500
     69 H5          -8.6370    -5.2070    -0.0700 H          1 14        0.146000
     70 H6          -8.5090    -5.0880    -1.8010 H          1 14        0.146000
     71 H7          -6.3550    -5.4420    -2.8770 H          1 14        0.202500
     72 H8          -3.9300    -5.9180    -2.6650 H          1 14        0.211000
     73 H9          -4.0800    -5.2390     1.4810 H          1 14        0.211000
     74 H10         -6.5100    -4.8130     1.3750 H          1 14        0.202500
     75 H11         -2.3150    -6.6450     1.3880 H          1 14        0.166000
     76 H12          0.0980    -6.3890     1.6300 H          1 14        0.168500
     77 H13          0.2790    -4.3540    -2.1740 H          1 14        0.168500
     78 H14         -2.1210    -4.5650    -2.4210 H          1 14        0.166000
     79 H15          2.4950    -5.7470    -1.9640 H          1 14        0.168500
     80 H16          4.8050    -5.0120    -1.7050 H          1 14        0.166000
     81 H17          3.8360    -3.4620     2.2360 H          1 14        0.166000
     82 H18          1.5550    -4.2320     1.9680 H          1 14        0.168500
     83 H19          6.0430    -3.9730     2.4130 H          1 14        0.211000
     84 H20          8.0650    -2.5650     2.6930 H          1 14        0.202500
     85 H21          7.8870    -1.6320    -1.5020 H          1 14        0.202500
     86 H22          5.8410    -3.0050    -1.6740 H          1 14        0.211000
     87 H23         10.0100    -1.2240    -0.0570 H          1 14        0.146000
     88 H24          9.8710    -1.2880     1.6770 H          1 14        0.146000
     89 H25          9.4420     0.8140    -1.2630 H          1 14        0.148500
     90 H26          8.9310     3.2050    -1.1760 H          1 14        0.148500
     91 H27          7.8820     2.8300     2.9930 H          1 14        0.148500
     92 H28          8.3930     0.4350     2.9060 H          1 14        0.148500
     93 H29          8.5090     5.0880     1.9110 H          1 14        0.146000
     94 H30          8.6370     5.2070     0.1790 H          1 14        0.146000
     95 H31          6.5100     4.8130    -1.2660 H          1 14        0.202500
     96 H32          4.0800     5.2390    -1.3720 H          1 14        0.211000
     97 H33          3.9300     5.9180     2.7750 H          1 14        0.211000
     98 H34          6.3540     5.4420     2.9870 H          1 14        0.202500
     99 H35          2.3150     6.6460    -1.2790 H          1 14        0.166000
    100 H36         -0.0980     6.3900    -1.5210 H          1 14        0.168500
    101 H37         -0.2790     4.3540     2.2830 H          1 14        0.168500
    102 H38          2.1210     4.5650     2.5300 H          1 14        0.166000
    103 H39         -2.4950     5.7470     2.0730 H          1 14        0.168500
    104 H40         -4.8050     5.0120     1.8140 H          1 14        0.166000
    105 H41         -3.8350     3.4620    -2.1270 H          1 14        0.166000
    106 H42         -1.5550     4.2320    -1.8590 H          1 14        0.168500
    107 H43         -6.0420     3.9720    -2.3040 H          1 14        0.211000
    108 H44         -8.0650     2.5640    -2.5840 H          1 14        0.202500
    109 H45         -7.8870     1.6320     1.6110 H          1 14        0.202500
    110 H46         -5.8410     3.0050     1.7830 H          1 14        0.211000
    111 H47        -10.0100     1.2240     0.1660 H          1 14        0.146000
    112 H48         -9.8710     1.2880    -1.5680 H          1 14        0.146000
@<TRIPOS>BOND
     1     1     2 1   
     2     1     6 1   
     3     1    65 1   
     4     2     3 1   
     5     2    66 1   
     6     3     4 1   
     7     3    64 1   
     8     4     5 1   
     9     4    67 1   
    10     5     6 1   
    11     5    68 1   
    12     6     7 1   
    13     7     8 1   
    14     7    69 1   
    15     7    70 1   
    16     8     9 1   
    17     8    13 1   
    18     9    10 1   
    19     9    71 1   
    20    10    11 1   
    21    10    72 1   
    22    11    12 1   
    23    11    14 1   
    24    12    13 1   
    25    12    73 1   
    26    13    74 1   
    27    14    15 1   
    28    14    19 1   
    29    15    16 1   
    30    15    75 1   
    31    16    17 1   
    32    16    76 1   
    33    17    18 1   
    34    17    20 1   
    35    18    19 1   
    36    18    77 1   
    37    19    78 1   
    38    20    21 1   
    39    20    25 1   
    40    21    22 1   
    41    21    79 1   
    42    22    23 1   
    43    22    80 1   
    44    23    24 1   
    45    23    26 1   
    46    24    25 1   
    47    24    81 1   
    48    25    82 1   
    49    26    27 1   
    50    26    31 1   
    51    27    28 1   
    52    27    83 1   
    53    28    29 1   
    54    28    84 1   
    55    29    30 1   
    56    29    32 1   
    57    30    31 1   
    58    30    85 1   
    59    31    86 1   
    60    32    33 1   
    61    32    87 1   
    62    32    88 1   
    63    33    34 1   
    64    33    38 1   
    65    34    35 1   
    66    34    89 1   
    67    35    36 1   
    68    35    90 1   
    69    36    37 1   
    70    36    39 1   
    71    37    38 1   
    72    37    91 1   
    73    38    92 1   
    74    39    40 1   
    75    39    93 1   
    76    39    94 1   
    77    40    41 1   
    78    40    45 1   
    79    41    42 1   
    80    41    95 1   
    81    42    43 1   
    82    42    96 1   
    83    43    44 1   
    84    43    46 1   
    85    44    45 1   
    86    44    97 1   
    87    45    98 1   
    88    46    47 1   
    89    46    51 1   
    90    47    48 1   
    91    47    99 1   
    92    48    49 1   
    93    48   100 1   
    94    49    50 1   
    95    49    52 1   
    96    50    51 1   
    97    50   101 1   
    98    51   102 1   
    99    52    53 1   
   100    52    57 1   
   101    53    54 1   
   102    53   103 1   
   103    54    55 1   
   104    54   104 1   
   105    55    56 1   
   106    55    58 1   
   107    56    57 1   
   108    56   105 1   
   109    57   106 1   
   110    58    59 1   
   111    58    63 1   
   112    59    60 1   
   113    59   107 1   
   114    60    61 1   
   115    60   108 1   
   116    61    62 1   
   117    61    64 1   
   118    62    63 1   
   119    62   109 1   
   120    63   110 1   
   121    64   111 1   
   122    64   112 1   
@<TRIPOS>SUBSTRUCTURE
     1 14          1 TEMP              0 ****  ****    0 ROOT
