@<TRIPOS>MOLECULE
72
   78    80     1     0     0
SMALL
bcc


@<TRIPOS>ATOM
      1 H           -3.5230     1.6780    -0.2980 H          0 72        0.307500
      2 N           -3.9650     2.5150    -0.0870 N           0 72       -0.566900
      3 C           -3.2110     3.7670     0.1480 C          0 72        0.086500
      4 C1          -1.7750     3.5760    -0.3460 C          0 72       -0.103400
      5 C2          -0.8120     4.3620     0.5470 C          0 72       -0.077400
      6 C3           0.1820     5.1380    -0.3200 C          0 72       -0.078400
      7 C4           1.5890     5.0160     0.2680 C          0 72       -0.077400
      8 C5           2.2260     3.6980    -0.1720 C          0 72       -0.103400
      9 C6           3.7470     3.7930    -0.0240 C          0 72        0.086500
     10 N1           4.3130     2.4250    -0.0140 N           0 72       -0.566900
     11 H1           3.7510     1.6350     0.0030 H          0 72        0.307500
     12 C7           5.6770     2.3450    -0.0300 C           0 72        0.668200
     13 O            6.3530     3.3550    -0.0570 O           0 72       -0.597100
     14 C8           6.3170     1.0130    -0.0150 C          0 72       -0.148100
     15 C9           7.7110     0.9050    -0.0230 C          0 72       -0.059000
     16 C10          8.3070    -0.3400    -0.0000 C          0 72       -0.143000
     17 C11          7.5360    -1.4850     0.0210 C          0 72       -0.059000
     18 C12          6.1410    -1.3900     0.0120 C          0 72       -0.148100
     19 C13          5.5350    -0.1370     0.0040 C          0 72       -0.086000
     20 C14          5.3200    -2.6180    -0.0010 C           0 72        0.668200
     21 O1           5.8490    -3.7110     0.0550 O           0 72       -0.597100
     22 N2           3.9590    -2.5120    -0.0760 N           0 72       -0.566900
     23 H2           3.5160    -1.6650    -0.2430 H          0 72        0.307500
     24 C15          3.2050    -3.7730     0.1130 C          0 72        0.086500
     25 C16          1.7510    -3.5430    -0.3120 C          0 72       -0.103400
     26 C17          0.8140    -4.3500     0.5880 C          0 72       -0.077400
     27 C18         -0.1730    -5.1410    -0.2720 C          0 72       -0.078400
     28 C19         -1.5840    -5.0040     0.3000 C          0 72       -0.077400
     29 C20         -2.2170    -3.6940    -0.1810 C          0 72       -0.103400
     30 C21         -3.7400    -3.7940    -0.0680 C          0 72        0.086500
     31 N3          -4.3090    -2.4280    -0.0520 N           0 72       -0.566900
     32 H3          -3.7470    -1.6370    -0.0420 H          0 72        0.307500
     33 C22         -5.6700    -2.3490    -0.0510 C           0 72        0.668200
     34 O2          -6.3450    -3.3600    -0.0720 O           0 72       -0.597100
     35 C23         -6.3160    -1.0190    -0.0240 C          0 72       -0.148100
     36 C24         -7.7100    -0.9130    -0.0090 C          0 72       -0.059000
     37 C25         -8.3070     0.3310     0.0230 C          0 72       -0.143000
     38 C26         -7.5400     1.4760     0.0350 C          0 72       -0.059000
     39 C27         -6.1450     1.3850     0.0120 C          0 72       -0.148100
     40 C28         -5.5350     0.1340    -0.0140 C          0 72       -0.086000
     41 C29         -5.3240     2.6160     0.0080 C           0 72        0.668200
     42 O3          -5.8550     3.7060     0.0930 O           0 72       -0.597100
     43 H4          -3.6800     4.5850    -0.4010 H          0 72        0.061700
     44 H5          -3.2040     3.9960     1.2130 H          0 72        0.061700
     45 H6          -1.5190     2.5170    -0.3120 H          0 72        0.044450
     46 H7          -1.6940     3.9350    -1.3720 H          0 72        0.044450
     47 H8          -1.3780     5.0600     1.1640 H          0 72        0.044450
     48 H9          -0.2690     3.6700     1.1910 H          0 72        0.044450
     49 H10          0.1750     4.7310    -1.3310 H          0 72        0.043700
     50 H11         -0.1080     6.1880    -0.3520 H          0 72        0.043700
     51 H12          2.2000     5.8480    -0.0810 H          0 72        0.044450
     52 H13          1.5300     5.0440     1.3560 H          0 72        0.044450
     53 H14          1.8510     2.8870     0.4510 H          0 72        0.044450
     54 H15          1.9740     3.5030    -1.2150 H          0 72        0.044450
     55 H16          4.1620     4.3530    -0.8620 H          0 72        0.061700
     56 H17          3.9920     4.2970     0.9110 H          0 72        0.061700
     57 H18          8.3220     1.7960    -0.0480 H          0 72        0.159000
     58 H19          9.3840    -0.4190     0.0010 H          0 72        0.146000
     59 H20          8.0110    -2.4550     0.0430 H          0 72        0.159000
     60 H21          4.4580    -0.0570     0.0130 H          0 72        0.134000
     61 H22          3.6460    -4.5580    -0.5000 H          0 72        0.061700
     62 H23          3.2370    -4.0640     1.1630 H          0 72        0.061700
     63 H24          1.5120    -2.4830    -0.2260 H          0 72        0.044450
     64 H25          1.6220    -3.8590    -1.3470 H          0 72        0.044450
     65 H26          1.3990    -5.0400     1.1950 H          0 72        0.044450
     66 H27          0.2630    -3.6720     1.2400 H          0 72        0.044450
     67 H28         -0.1550    -4.7550    -1.2910 H          0 72        0.043700
     68 H29          0.1150    -6.1930    -0.2790 H          0 72        0.043700
     69 H30         -2.1940    -5.8440    -0.0340 H          0 72        0.044450
     70 H31         -1.5350    -5.0040     1.3890 H          0 72        0.044450
     71 H32         -1.8600    -2.8700     0.4370 H          0 72        0.044450
     72 H33         -1.9390    -3.5170    -1.2200 H          0 72        0.044450
     73 H34         -4.1340    -4.3430    -0.9240 H          0 72        0.061700
     74 H35         -4.0060    -4.3110     0.8540 H          0 72        0.061700
     75 H36         -8.3190    -1.8050    -0.0220 H          0 72        0.159000
     76 H37         -9.3840     0.4070     0.0370 H          0 72        0.146000
     77 H38         -8.0170     2.4450     0.0630 H          0 72        0.159000
     78 H39         -4.4580     0.0570    -0.0270 H          0 72        0.134000
@<TRIPOS>BOND
     1     1     2 1   
     2     2     3 1   
     3     2    41 1   
     4     3     4 1   
     5     3    43 1   
     6     3    44 1   
     7     4     5 1   
     8     4    45 1   
     9     4    46 1   
    10     5     6 1   
    11     5    47 1   
    12     5    48 1   
    13     6     7 1   
    14     6    49 1   
    15     6    50 1   
    16     7     8 1   
    17     7    51 1   
    18     7    52 1   
    19     8     9 1   
    20     8    53 1   
    21     8    54 1   
    22     9    10 1   
    23     9    55 1   
    24     9    56 1   
    25    10    11 1   
    26    10    12 1   
    27    12    13 2   
    28    12    14 1   
    29    14    15 ar  
    30    14    19 ar  
    31    15    16 ar  
    32    15    57 1   
    33    16    17 ar  
    34    16    58 1   
    35    17    18 ar  
    36    17    59 1   
    37    18    19 ar  
    38    18    20 1   
    39    19    60 1   
    40    20    21 2   
    41    20    22 1   
    42    22    23 1   
    43    22    24 1   
    44    24    25 1   
    45    24    61 1   
    46    24    62 1   
    47    25    26 1   
    48    25    63 1   
    49    25    64 1   
    50    26    27 1   
    51    26    65 1   
    52    26    66 1   
    53    27    28 1   
    54    27    67 1   
    55    27    68 1   
    56    28    29 1   
    57    28    69 1   
    58    28    70 1   
    59    29    30 1   
    60    29    71 1   
    61    29    72 1   
    62    30    31 1   
    63    30    73 1   
    64    30    74 1   
    65    31    32 1   
    66    31    33 1   
    67    33    34 2   
    68    33    35 1   
    69    35    36 ar  
    70    35    40 ar  
    71    36    37 ar  
    72    36    75 1   
    73    37    38 ar  
    74    37    76 1   
    75    38    39 ar  
    76    38    77 1   
    77    39    40 ar  
    78    39    41 1   
    79    40    78 1   
    80    41    42 2   
@<TRIPOS>SUBSTRUCTURE
     1 72          1 TEMP              0 ****  ****    0 ROOT
