@<TRIPOS>MOLECULE
2
   62    70     1     0     0
SMALL
bcc


@<TRIPOS>ATOM
      1 C1           5.3430     0.4350     2.6450 C          1 2        -0.141000
      2 C2           4.4580    -0.5700     2.6150 C          1 2        -0.154200
      3 C3           2.9730    -0.3610     2.8000 C          1 2        -0.023500
      4 C4           2.1470    -0.7950     1.5710 C          1 2         0.378700
      5 N1           1.8550    -2.2220     1.5800 N          1 2        -0.562900
      6 C5           1.1710    -2.6490     0.5790 C          1 2         0.670900
      7 N2           0.6800    -1.8800    -0.4700 N          1 2        -0.736000
      8 C6           0.0340    -2.6970    -1.2460 C          1 2         0.702900
      9 N3          -0.6150    -2.3620    -2.3960 N          1 2        -0.698000
     10 C7          -1.1040    -1.1750    -2.5050 C          1 2         0.624400
     11 N4          -1.1300    -0.0850    -1.6710 N          1 2        -0.451300
     12 C8          -1.7610     1.0270    -2.1720 C          1 2         0.624400
     13 N5          -1.9780     2.2070    -1.7050 N          1 2        -0.698000
     14 C9          -1.5210     2.5110    -0.4580 C          1 2         0.702900
     15 N6          -0.4760     1.9940     0.1160 N          1 2        -0.736000
     16 C10         -0.3910     2.5880     1.3700 C          1 2         0.670900
     17 N7           0.4930     2.3400     2.2700 N          1 2        -0.562900
     18 C11          1.5040     1.3600     1.8970 C          1 2         0.378700
     19 N8           0.9550     0.0250     1.7210 N          1 2        -0.849200
     20 C12          2.5300     1.1220     3.0240 C          1 2        -0.023500
     21 C13          3.6500     2.1370     3.0240 C          1 2        -0.154200
     22 C14          4.9360     1.8020     2.8520 C          1 2        -0.141000
     23 C15         -1.4790     3.5430     1.5340 C          1 2        -0.150900
     24 C16         -1.8290     4.3740     2.5800 C          1 2        -0.081000
     25 C17         -2.9570     5.1820     2.3970 C          1 2        -0.121000
     26 C18         -3.6940     5.1380     1.1930 C          1 2        -0.134000
     27 C19         -3.3180     4.2840     0.1510 C          1 2        -0.069000
     28 C20         -2.2020     3.5000     0.3590 C          1 2        -0.173900
     29 C21         -2.2280     0.6070    -3.5120 C          1 2        -0.150900
     30 C22         -2.9290     1.3090    -4.4720 C          1 2        -0.065000
     31 C23         -3.2300     0.6370    -5.6610 C          1 2        -0.120000
     32 C24         -2.8310    -0.7030    -5.8640 C          1 2        -0.120000
     33 C25         -2.1200    -1.4010    -4.8820 C          1 2        -0.065000
     34 C26         -1.8300    -0.7260    -3.7130 C          1 2        -0.150900
     35 C27          0.0590    -4.0750    -0.7870 C          1 2        -0.173900
     36 C28         -0.4740    -5.2440    -1.2900 C          1 2        -0.069000
     37 C29         -0.2470    -6.4110    -0.5530 C          1 2        -0.134000
     38 C30          0.4930    -6.3780     0.6490 C          1 2        -0.121000
     39 C31          1.0220    -5.1770     1.1350 C          1 2        -0.081000
     40 C32          0.7850    -4.0410     0.3870 C          1 2        -0.150900
     41 H1           6.4040     0.2410     2.5130 H          1 2         0.128000
     42 H2           4.7960    -1.5910     2.4590 H          1 2         0.136000
     43 H3           2.6660    -0.9440     3.6800 H          1 2         0.082700
     44 H4           2.6920    -0.5370     0.6500 H          1 2         0.047700
     45 H5          -0.5900    -0.0530    -0.8150 H          1 2         0.359700
     46 H6           2.0250     1.6970     0.9870 H          1 2         0.047700
     47 H7           0.4500     0.0070     0.8440 H          1 2         0.395800
     48 H8           2.0300     1.1840     4.0020 H          1 2         0.082700
     49 H9           3.3730     3.1760     3.1800 H          1 2         0.136000
     50 H10          5.7110     2.5620     2.8640 H          1 2         0.128000
     51 H11         -1.2520     4.3930     3.4970 H          1 2         0.154000
     52 H12         -3.2720     5.8530     3.1940 H          1 2         0.136000
     53 H13         -4.5680     5.7760     1.0790 H          1 2         0.136000
     54 H14         -3.8750     4.2380    -0.7780 H          1 2         0.151000
     55 H15         -3.2280     2.3380    -4.3090 H          1 2         0.162000
     56 H16         -3.7800     1.1530    -6.4460 H          1 2         0.143000
     57 H17         -3.0780    -1.1970    -6.8020 H          1 2         0.143000
     58 H18         -1.8050    -2.4280    -5.0300 H          1 2         0.162000
     59 H19         -1.0420    -5.2530    -2.2130 H          1 2         0.151000
     60 H20         -0.6480    -7.3590    -0.9070 H          1 2         0.136000
     61 H21          0.6540    -7.3000     1.2050 H          1 2         0.136000
     62 H22          1.5910    -5.1320     2.0570 H          1 2         0.154000
@<TRIPOS>BOND
     1     1     2 2   
     2     1    22 1   
     3     1    41 1   
     4     2     3 1   
     5     2    42 1   
     6     3     4 1   
     7     3    20 1   
     8     3    43 1   
     9     4     5 1   
    10     4    19 1   
    11     4    44 1   
    12     5     6 2   
    13     6     7 1   
    14     6    40 1   
    15     7     8 2   
    16     8     9 1   
    17     8    35 1   
    18     9    10 2   
    19    10    11 1   
    20    10    34 1   
    21    11    12 1   
    22    11    45 1   
    23    12    13 2   
    24    12    29 1   
    25    13    14 1   
    26    14    15 2   
    27    14    28 1   
    28    15    16 1   
    29    16    17 2   
    30    16    23 1   
    31    17    18 1   
    32    18    19 1   
    33    18    20 1   
    34    18    46 1   
    35    19    47 1   
    36    20    21 1   
    37    20    48 1   
    38    21    22 2   
    39    21    49 1   
    40    22    50 1   
    41    23    24 ar  
    42    23    28 ar  
    43    24    25 ar  
    44    24    51 1   
    45    25    26 ar  
    46    25    52 1   
    47    26    27 ar  
    48    26    53 1   
    49    27    28 ar  
    50    27    54 1   
    51    29    30 ar  
    52    29    34 ar  
    53    30    31 ar  
    54    30    55 1   
    55    31    32 ar  
    56    31    56 1   
    57    32    33 ar  
    58    32    57 1   
    59    33    34 ar  
    60    33    58 1   
    61    35    36 ar  
    62    35    40 ar  
    63    36    37 ar  
    64    36    59 1   
    65    37    38 ar  
    66    37    60 1   
    67    38    39 ar  
    68    38    61 1   
    69    39    40 ar  
    70    39    62 1   
@<TRIPOS>SUBSTRUCTURE
     1 2           1 TEMP              0 ****  ****    0 ROOT
