@<TRIPOS>MOLECULE
184
   38    40     1     0     0
SMALL
bcc


@<TRIPOS>ATOM
      1 O           -0.1880    -3.7820     0.6770 O           0 184      -0.598100
      2 C           -0.3330    -2.6310     0.3250 C           0 184       0.671700
      3 N            0.7670    -1.8970     0.0300 N           0 184      -0.572900
      4 C1           2.0610    -2.5840     0.2530 C          0 184       0.097000
      5 C2           2.9560    -2.4070    -0.9730 C          0 184      -0.075300
      6 S            4.2190    -1.1530    -0.6120 S          0 184      -0.099900
      7 C3           3.1750     0.1960    -0.1740 C          0 184       0.537300
      8 N1           3.2470     0.7500     1.0290 N          0 184      -0.293750
      9 N2           2.4770     1.7330     1.3350 N          0 184      -0.293750
     10 C4           1.6050     2.2010     0.4500 C          0 184       0.537300
     11 S1           0.5540     3.5460     0.8780 S          0 184      -0.099900
     12 C5          -0.6900     3.3990    -0.4300 C          0 184      -0.075300
     13 C6          -1.3000     1.9900    -0.4310 C          0 184       0.097000
     14 N3          -2.7580     2.1570    -0.6680 N           0 184      -0.572900
     15 C7          -3.5810     1.1020    -0.4820 C           0 184       0.671700
     16 O1          -4.7760     1.3320    -0.6240 O           0 184      -0.598100
     17 C8          -3.2340    -0.2800    -0.1460 C          0 184      -0.145100
     18 C9          -4.3030    -1.1560     0.1320 C          0 184      -0.058500
     19 C10         -4.0690    -2.4710     0.4640 C          0 184      -0.144000
     20 C11         -2.7780    -2.9490     0.5270 C          0 184      -0.058500
     21 C12         -1.7020    -2.1040     0.2470 C          0 184      -0.145100
     22 C13         -1.9370    -0.7730    -0.0980 C          0 184      -0.076000
     23 N4           1.5280     1.6500    -0.7590 N          0 184      -0.293750
     24 N5           2.3020     0.6620    -1.0670 N          0 184      -0.293750
     25 H            0.7100    -0.9850    -0.3070 H          0 184       0.319500
     26 H1           2.5560    -2.1500     1.1230 H          0 184       0.063450
     27 H2           1.8970    -3.6460     0.4260 H          0 184       0.063450
     28 H3           3.4410    -3.3560    -1.2080 H          0 184       0.095200
     29 H4           2.3520    -2.0860    -1.8220 H          0 184       0.095200
     30 H5          -1.4790     4.1330    -0.2600 H          0 184       0.095200
     31 H6          -0.2240     3.5910    -1.3960 H          0 184       0.095200
     32 H7          -0.8540     1.4020    -1.2350 H          0 184       0.063450
     33 H8          -1.1240     1.5120     0.5320 H          0 184       0.063450
     34 H9          -3.1190     3.0190    -0.9560 H          0 184       0.319500
     35 H10         -5.3180    -0.7890     0.0840 H          0 184       0.162000
     36 H11         -4.8980    -3.1300     0.6760 H          0 184       0.148000
     37 H12         -2.6010    -3.9790     0.7960 H          0 184       0.162000
     38 H13         -1.0940    -0.1420    -0.3320 H          0 184       0.138000
@<TRIPOS>BOND
     1     1     2 2   
     2     2     3 1   
     3     2    21 1   
     4     3     4 1   
     5     3    25 1   
     6     4     5 1   
     7     4    26 1   
     8     4    27 1   
     9     5     6 1   
    10     5    28 1   
    11     5    29 1   
    12     6     7 1   
    13     7     8 ar  
    14     7    24 ar  
    15     8     9 ar  
    16     9    10 ar  
    17    10    11 1   
    18    10    23 ar  
    19    11    12 1   
    20    12    13 1   
    21    12    30 1   
    22    12    31 1   
    23    13    14 1   
    24    13    32 1   
    25    13    33 1   
    26    14    15 1   
    27    14    34 1   
    28    15    16 2   
    29    15    17 1   
    30    17    18 ar  
    31    17    22 ar  
    32    18    19 ar  
    33    18    35 1   
    34    19    20 ar  
    35    19    36 1   
    36    20    21 ar  
    37    20    37 1   
    38    21    22 ar  
    39    22    38 1   
    40    23    24 ar  
@<TRIPOS>SUBSTRUCTURE
     1 184         1 TEMP              0 ****  ****    0 ROOT
