@<TRIPOS>MOLECULE
143
  115   119     1     0     0
SMALL
bcc


@<TRIPOS>ATOM
      1 C1           4.3730     0.0860    -1.6330 C          1 143       0.084600
      2 N1           2.9560     0.1740    -1.0780 N          1 143      -0.605800
      3 C2           1.9930     0.9000    -2.0860 C          1 143       0.115467
      4 C3           2.1960     0.4790    -3.5440 C          1 143      -0.126567
      5 C4           1.1840     1.1580    -4.4670 C          1 143       0.102167
      6 N2          -0.0970     0.4780    -4.4520 N           1 143      -0.559400
      7 C5          -1.3400     1.0690    -4.3880 C           1 143       0.582933
      8 O1          -2.3390     0.4680    -4.7780 O           1 143      -0.617767
      9 C6          -1.4980     2.3770    -3.7060 C          1 143       0.348133
     10 C7          -2.3120     3.3580    -4.2550 C          1 143      -0.178633
     11 C8          -2.4960     4.5360    -3.5330 C          1 143      -0.080667
     12 C9          -1.8910     4.6770    -2.2860 C          1 143      -0.178633
     13 C10         -1.1290     3.6180    -1.8120 C          1 143       0.348133
     14 N3          -0.9020     2.4690    -2.4910 N          1 143      -0.679000
     15 C11         -0.4810     3.6700    -0.4830 C           1 143       0.582933
     16 O2           0.7450     3.7260    -0.4180 O           1 143      -0.617767
     17 N4          -1.2470     3.5590     0.6530 N           1 143      -0.559400
     18 C12         -2.6870     3.4690     0.8010 C          1 143       0.102167
     19 C13         -3.2720     2.0840     0.4980 C          1 143      -0.126567
     20 C14         -2.6220     0.9730     1.3290 C          1 143       0.115467
     21 N5          -3.4240    -0.3550     1.3360 N          1 143      -0.605800
     22 C15         -4.7590    -0.1690     2.0880 C          1 143       0.084600
     23 C16         -3.8050    -0.8620    -0.0890 C          1 143       0.115467
     24 C17         -2.6290    -1.0230    -1.0500 C          1 143      -0.126567
     25 C18         -3.0420    -1.9150    -2.2280 C          1 143       0.102167
     26 N6          -2.0600    -1.8950    -3.2920 N           1 143      -0.559400
     27 C19         -0.9410    -2.6760    -3.4560 C           1 143       0.582933
     28 O3          -0.1440    -2.4640    -4.3660 O           1 143      -0.617767
     29 C20         -0.6950    -3.7710    -2.4910 C          1 143       0.348133
     30 C21         -0.9180    -5.0860    -2.8790 C          1 143      -0.178633
     31 C22         -0.7530    -6.0860    -1.9220 C          1 143      -0.080667
     32 C23         -0.3650    -5.7400    -0.6300 C          1 143      -0.178633
     33 C24         -0.1350    -4.3970    -0.3630 C          1 143       0.348133
     34 N7          -0.2890    -3.3880    -1.2560 N          1 143      -0.679000
     35 C25          0.3050    -3.9760     0.9860 C           1 143       0.582933
     36 O4          -0.5000    -3.9690     1.9160 O           1 143      -0.617767
     37 N8           1.5930    -3.5190     1.1430 N           1 143      -0.559400
     38 C26          2.6820    -3.5650     0.1830 C          1 143       0.102167
     39 C27          3.3030    -2.1820    -0.0350 C          1 143      -0.126567
     40 C28          2.3670    -1.2560    -0.8220 C          1 143       0.115467
     41 C29         -2.5860    -1.4870     2.0340 C          1 143       0.115467
     42 C30         -2.3830    -1.3340     3.5470 C          1 143      -0.126567
     43 C31         -1.0040    -0.8100     3.9390 C          1 143       0.102167
     44 N9           0.0690    -1.7170     3.5690 N           1 143      -0.559400
     45 C32          1.4120    -1.5300     3.8290 C           1 143       0.582933
     46 O5           2.2110    -2.4500     3.6720 O           1 143      -0.617767
     47 C33          1.8940    -0.1840     4.2260 C          1 143       0.348133
     48 C34          2.7070    -0.0260     5.3400 C          1 143      -0.178633
     49 C35          3.1140     1.2650     5.6740 C          1 143      -0.080667
     50 C36          2.7130     2.3400     4.8830 C          1 143      -0.178633
     51 C37          1.9280     2.0610     3.7730 C          1 143       0.348133
     52 N10          1.5170     0.8250     3.4060 N          1 143      -0.679000
     53 C38          1.4920     3.1290     2.8510 C           1 143       0.582933
     54 O6           0.3320     3.5350     2.8980 O           1 143      -0.617767
     55 N11          2.3600     3.5510     1.8740 N           1 143      -0.559400
     56 C39          3.6830     3.0440     1.5570 C          1 143       0.102167
     57 C40          3.7170     2.2910     0.2240 C          1 143      -0.126567
     58 C41          2.9270     0.9760     0.2680 C          1 143       0.115467
     59 H1           4.6530     1.0600    -2.0410 H          1 143       0.099367
     60 H2           4.3970    -0.6750    -2.4180 H          1 143       0.099367
     61 H3           5.0500    -0.1900    -0.8200 H          1 143       0.099367
     62 H4           0.9760     0.6930    -1.7380 H          1 143       0.103533
     63 H5           2.1830     1.9720    -1.9990 H          1 143       0.103533
     64 H6           3.1930     0.7900    -3.8750 H          1 143       0.077367
     65 H7           2.1380    -0.6070    -3.6640 H          1 143       0.077367
     66 H8           1.5410     1.0860    -5.5010 H          1 143       0.069117
     67 H9           1.0810     2.2230    -4.2430 H          1 143       0.069117
     68 H10         -0.1200    -0.4470    -4.8890 H          1 143       0.355500
     69 H11         -2.7900     3.2120    -5.2200 H          1 143       0.177667
     70 H12         -3.1100     5.3380    -3.9410 H          1 143       0.175667
     71 H13         -2.0140     5.5870    -1.7070 H          1 143       0.177667
     72 H14         -0.7000     3.6680     1.5160 H          1 143       0.355500
     73 H15         -3.1580     4.2180     0.1590 H          1 143       0.069117
     74 H16         -2.9120     3.7420     1.8380 H          1 143       0.069117
     75 H17         -4.3480     2.1390     0.6910 H          1 143       0.077367
     76 H18         -3.1560     1.8700    -0.5680 H          1 143       0.077367
     77 H19         -2.5320     1.2830     2.3760 H          1 143       0.103533
     78 H20         -1.6220     0.7400     0.9480 H          1 143       0.103533
     79 H21         -4.5810     0.4050     3.0000 H          1 143       0.099367
     80 H22         -5.1660    -1.1580     2.3140 H          1 143       0.099367
     81 H23         -5.4540     0.3800     1.4470 H          1 143       0.099367
     82 H24         -4.5280    -0.1510    -0.5050 H          1 143       0.103533
     83 H25         -4.3260    -1.8160     0.0580 H          1 143       0.103533
     84 H26         -2.3140    -0.0440    -1.4260 H          1 143       0.077367
     85 H27         -1.7550    -1.4530    -0.5610 H          1 143       0.077367
     86 H28         -3.9790    -1.5540    -2.6660 H          1 143       0.069117
     87 H29         -3.2000    -2.9450    -1.8930 H          1 143       0.069117
     88 H30         -2.1960    -1.2020    -4.0320 H          1 143       0.355500
     89 H31         -1.2300    -5.3260    -3.8920 H          1 143       0.177667
     90 H32         -0.9300    -7.1280    -2.1830 H          1 143       0.175667
     91 H33         -0.2330    -6.4970     0.1360 H          1 143       0.177667
     92 H34          1.8520    -3.3420     2.1190 H          1 143       0.355500
     93 H35          3.4360    -4.2330     0.6140 H          1 143       0.069117
     94 H36          2.3660    -4.0040    -0.7660 H          1 143       0.069117
     95 H37          3.5670    -1.7520     0.9350 H          1 143       0.077367
     96 H38          4.2350    -2.3290    -0.5910 H          1 143       0.077367
     97 H39          2.1620    -1.6950    -1.8020 H          1 143       0.103533
     98 H40          1.4160    -1.1070    -0.2980 H          1 143       0.103533
     99 H41         -1.6310    -1.5410     1.5080 H          1 143       0.103533
    100 H42         -3.1390    -2.4150     1.8470 H          1 143       0.103533
    101 H43         -2.4980    -2.3280     3.9980 H          1 143       0.077367
    102 H44         -3.1420    -0.7040     4.0150 H          1 143       0.077367
    103 H45         -0.8300     0.1630     3.4760 H          1 143       0.069117
    104 H46         -0.9550    -0.6750     5.0250 H          1 143       0.069117
    105 H47         -0.1570    -2.6950     3.3720 H          1 143       0.355500
    106 H48          3.0020    -0.8800     5.9430 H          1 143       0.177667
    107 H49          3.7370     1.4320     6.5520 H          1 143       0.175667
    108 H50          3.0080     3.3560     5.1240 H          1 143       0.177667
    109 H51          1.9310     4.1840     1.1970 H          1 143       0.355500
    110 H52          4.3350     3.9210     1.4870 H          1 143       0.069117
    111 H53          4.0670     2.4110     2.3620 H          1 143       0.069117
    112 H54          4.7700     2.0850     0.0030 H          1 143       0.077367
    113 H55          3.3490     2.9500    -0.5670 H          1 143       0.077367
    114 H56          1.8700     1.1400     0.5040 H          1 143       0.103533
    115 H57          3.3620     0.3290     1.0350 H          1 143       0.103533
@<TRIPOS>BOND
     1     1     2 1   
     2     1    59 1   
     3     1    60 1   
     4     1    61 1   
     5     2     3 1   
     6     2    40 1   
     7     2    58 1   
     8     3     4 1   
     9     3    62 1   
    10     3    63 1   
    11     4     5 1   
    12     4    64 1   
    13     4    65 1   
    14     5     6 1   
    15     5    66 1   
    16     5    67 1   
    17     6     7 1   
    18     6    68 1   
    19     7     8 2   
    20     7     9 1   
    21     9    10 ar  
    22     9    14 ar  
    23    10    11 ar  
    24    10    69 1   
    25    11    12 ar  
    26    11    70 1   
    27    12    13 ar  
    28    12    71 1   
    29    13    14 ar  
    30    13    15 1   
    31    15    16 2   
    32    15    17 1   
    33    17    18 1   
    34    17    72 1   
    35    18    19 1   
    36    18    73 1   
    37    18    74 1   
    38    19    20 1   
    39    19    75 1   
    40    19    76 1   
    41    20    21 1   
    42    20    77 1   
    43    20    78 1   
    44    21    22 1   
    45    21    23 1   
    46    21    41 1   
    47    22    79 1   
    48    22    80 1   
    49    22    81 1   
    50    23    24 1   
    51    23    82 1   
    52    23    83 1   
    53    24    25 1   
    54    24    84 1   
    55    24    85 1   
    56    25    26 1   
    57    25    86 1   
    58    25    87 1   
    59    26    27 1   
    60    26    88 1   
    61    27    28 2   
    62    27    29 1   
    63    29    30 ar  
    64    29    34 ar  
    65    30    31 ar  
    66    30    89 1   
    67    31    32 ar  
    68    31    90 1   
    69    32    33 ar  
    70    32    91 1   
    71    33    34 ar  
    72    33    35 1   
    73    35    36 2   
    74    35    37 1   
    75    37    38 1   
    76    37    92 1   
    77    38    39 1   
    78    38    93 1   
    79    38    94 1   
    80    39    40 1   
    81    39    95 1   
    82    39    96 1   
    83    40    97 1   
    84    40    98 1   
    85    41    42 1   
    86    41    99 1   
    87    41   100 1   
    88    42    43 1   
    89    42   101 1   
    90    42   102 1   
    91    43    44 1   
    92    43   103 1   
    93    43   104 1   
    94    44    45 1   
    95    44   105 1   
    96    45    46 2   
    97    45    47 1   
    98    47    48 ar  
    99    47    52 ar  
   100    48    49 ar  
   101    48   106 1   
   102    49    50 ar  
   103    49   107 1   
   104    50    51 ar  
   105    50   108 1   
   106    51    52 ar  
   107    51    53 1   
   108    53    54 2   
   109    53    55 1   
   110    55    56 1   
   111    55   109 1   
   112    56    57 1   
   113    56   110 1   
   114    56   111 1   
   115    57    58 1   
   116    57   112 1   
   117    57   113 1   
   118    58   114 1   
   119    58   115 1   
@<TRIPOS>SUBSTRUCTURE
     1 143         1 TEMP              0 ****  ****    0 ROOT
