@<TRIPOS>MOLECULE
REO
  126   132     1     0     0
SMALL
bcc


@<TRIPOS>ATOM
      1 C1           5.8390     0.0600    -3.3670 C          0 REO      -0.088933
      2 C2           4.3930     0.0960    -2.8910 C          0 REO      -0.052933
      3 C3           4.2970    -0.0070    -1.3720 C          0 REO      -0.036633
      4 C4           4.2330    -1.2890    -0.7460 C          0 REO      -0.095800
      5 C5           4.0290    -2.5460    -1.5940 C          0 REO       0.209267
      6 N1           2.5960    -2.7080    -1.8390 N          0 REO      -0.835533
      7 C6           2.2660    -3.9690    -2.4870 C          0 REO       0.234100
      8 C7           0.8360    -3.9380    -2.9180 C          0 REO      -0.137600
      9 C8           0.1850    -4.5920    -3.9460 C          0 REO      -0.192167
     10 C9          -1.1430    -4.1010    -3.9950 C          0 REO      -0.192167
     11 C10         -1.2770    -3.1570    -2.9950 C          0 REO      -0.137600
     12 C11         -2.3840    -2.2110    -2.6800 C          0 REO       0.234100
     13 N2          -3.3890    -2.8570    -1.8470 N          0 REO      -0.835533
     14 C12         -4.5850    -2.0190    -1.6770 C          0 REO       0.209267
     15 C13         -4.3960    -0.8590    -0.6920 C          0 REO      -0.095800
     16 C14         -4.1990     0.4740    -1.1660 C          0 REO      -0.036633
     17 C15         -4.3370     0.7890    -2.6520 C          0 REO      -0.052933
     18 C16         -5.7850     1.0610    -3.0410 C          0 REO      -0.088933
     19 C17         -3.9460     1.5330    -0.2390 C          0 REO      -0.095800
     20 C18         -3.7100     2.9550    -0.7520 C          0 REO       0.209267
     21 N3          -2.3120     3.1780    -1.1310 N          0 REO      -0.835533
     22 C19         -2.1500     4.5120    -1.7010 C          0 REO       0.234100
     23 C20         -0.8290     4.6330    -2.3770 C          0 REO      -0.137600
     24 C21         -0.5080     5.0810    -3.6440 C          0 REO      -0.192167
     25 C22          0.8970     5.0060    -3.7850 C          0 REO      -0.192167
     26 C23          1.4110     4.5120    -2.6040 C          0 REO      -0.137600
     27 C24          2.8180     4.2280    -2.2020 C          0 REO       0.234100
     28 N4           2.8780     2.9540    -1.5010 N          0 REO      -0.835533
     29 C25          4.2600     2.5500    -1.2410 C          0 REO       0.209267
     30 C26          4.2890     1.1760    -0.5730 C          0 REO      -0.095800
     31 C27          4.2060     1.0770     0.8470 C          0 REO      -0.036633
     32 C28          4.1040     2.3410     1.6960 C          0 REO      -0.052933
     33 C29          5.4720     2.8620     2.1240 C          0 REO      -0.088933
     34 C30          4.2070    -0.2030     1.4750 C          0 REO      -0.095800
     35 C31          4.0760    -0.3090     2.9950 C          0 REO       0.209267
     36 N5           2.6650    -0.4440     3.3490 N          0 REO      -0.835533
     37 C32          2.4700    -0.6520     4.7770 C          0 REO       0.234100
     38 C33          1.1010    -1.1980     5.0070 C          0 REO      -0.137600
     39 C34          0.6220    -2.0760     5.9590 C          0 REO      -0.192167
     40 C35         -0.7310    -2.3540     5.6430 C          0 REO      -0.192167
     41 C36         -1.0480    -1.6390     4.5050 C          0 REO      -0.137600
     42 C37         -2.2750    -1.6200     3.6630 C          0 REO       0.234100
     43 N6          -2.9600    -0.3490     3.8440 N          0 REO      -0.835533
     44 C38         -4.2530    -0.3090     3.1560 C          0 REO       0.209267
     45 C39         -4.1770    -0.0570     1.6470 C          0 REO      -0.095800
     46 C40         -4.4100    -1.1170     0.7160 C          0 REO      -0.036633
     47 C41         -4.7490    -2.5180     1.2170 C          0 REO      -0.052933
     48 C42         -6.2480    -2.7050     1.4300 C          0 REO      -0.088933
     49 C43         -3.9050     1.2600     1.1620 C          0 REO      -0.036633
     50 C44         -3.6120     2.3940     2.1420 C          0 REO      -0.052933
     51 C45         -4.8650     3.1560     2.5640 C          0 REO      -0.088933
     52 N7           0.0430    -0.8700     4.1890 N          0 REO      -0.142767
     53 C46          4.2100    -1.3870     0.6780 C          0 REO      -0.036633
     54 C47          4.1940    -2.7630     1.3410 C          0 REO      -0.052933
     55 C48          5.6020    -3.3180     1.5160 C          0 REO      -0.088933
     56 N8           0.3500     4.2960    -1.7530 N          0 REO      -0.142767
     57 N9          -0.1050    -3.1580    -2.2790 N          0 REO      -0.142767
     58 H1           6.4210     0.8860    -2.9470 H          0 REO       0.035478
     59 H2           5.8790     0.1390    -4.4580 H          0 REO       0.035478
     60 H3           6.3330    -0.8740    -3.0780 H          0 REO       0.035478
     61 H4           3.9060     1.0020    -3.2620 H          0 REO       0.057283
     62 H5           3.8250    -0.6980    -3.3840 H          0 REO       0.057283
     63 H6           4.4490    -3.4290    -1.1060 H          0 REO       0.041200
     64 H7           4.5860    -2.4810    -2.5350 H          0 REO       0.041200
     65 H8           2.2940    -1.9410    -2.4380 H          0 REO       0.366633
     66 H9           2.4180    -4.8040    -1.7930 H          0 REO       0.047117
     67 H10          2.9000    -4.1300    -3.3660 H          0 REO       0.047117
     68 H11          0.6330    -5.3060    -4.6250 H          0 REO       0.148667
     69 H12         -1.9010    -4.3630    -4.7210 H          0 REO       0.148667
     70 H13         -2.8220    -1.8910    -3.6330 H          0 REO       0.047117
     71 H14         -1.9770    -1.3230    -2.1820 H          0 REO       0.047117
     72 H15         -3.6610    -3.7240    -2.3070 H          0 REO       0.366633
     73 H16         -4.9680    -1.6940    -2.6480 H          0 REO       0.041200
     74 H17         -5.3990    -2.6550    -1.3110 H          0 REO       0.041200
     75 H18         -3.7170     1.6410    -2.9450 H          0 REO       0.057283
     76 H19         -3.9370    -0.0170    -3.2680 H          0 REO       0.057283
     77 H20         -6.4260     0.1970    -2.8390 H          0 REO       0.035478
     78 H21         -5.8520     1.2860    -4.1110 H          0 REO       0.035478
     79 H22         -6.1960     1.9130    -2.4910 H          0 REO       0.035478
     80 H23         -4.3850     3.1550    -1.5920 H          0 REO       0.041200
     81 H24         -4.0100     3.6980    -0.0090 H          0 REO       0.041200
     82 H25         -2.0480     2.4870    -1.8290 H          0 REO       0.366633
     83 H26         -2.9360     4.7180    -2.4380 H          0 REO       0.047117
     84 H27         -2.2250     5.2690    -0.9120 H          0 REO       0.047117
     85 H28         -1.2140     5.4280    -4.3880 H          0 REO       0.148667
     86 H29          1.4730     5.2820    -4.6590 H          0 REO       0.148667
     87 H30          3.1770     5.0370    -1.5540 H          0 REO       0.047117
     88 H31          3.4480     4.2070    -3.0990 H          0 REO       0.047117
     89 H32          2.4310     2.2400    -2.0740 H          0 REO       0.366633
     90 H33          4.8530     2.5380    -2.1620 H          0 REO       0.041200
     91 H34          4.7670     3.2940    -0.6190 H          0 REO       0.041200
     92 H35          3.4770     2.1690     2.5770 H          0 REO       0.057283
     93 H36          3.5600     3.1280     1.1650 H          0 REO       0.057283
     94 H37          6.0180     2.1220     2.7190 H          0 REO       0.035478
     95 H38          5.3570     3.7640     2.7300 H          0 REO       0.035478
     96 H39          6.0970     3.1110     1.2610 H          0 REO       0.035478
     97 H40          4.5180     0.5550     3.4980 H          0 REO       0.041200
     98 H41          4.6680    -1.1570     3.3580 H          0 REO       0.041200
     99 H42          2.2980    -1.2530     2.8480 H          0 REO       0.366633
    100 H43          3.2000    -1.3690     5.1740 H          0 REO       0.047117
    101 H44          2.5890     0.2930     5.3180 H          0 REO       0.047117
    102 H45          1.1970    -2.5090     6.7670 H          0 REO       0.148667
    103 H46         -1.3870    -3.0400     6.1630 H          0 REO       0.148667
    104 H47         -2.9180    -2.4540     3.9690 H          0 REO       0.047117
    105 H48         -1.9930    -1.7710     2.6150 H          0 REO       0.047117
    106 H49         -3.1190    -0.2270     4.8420 H          0 REO       0.366633
    107 H50         -4.8420     0.5010     3.5990 H          0 REO       0.041200
    108 H51         -4.8490    -1.1910     3.4100 H          0 REO       0.041200
    109 H52         -4.2190    -2.7450     2.1430 H          0 REO       0.057283
    110 H53         -4.3780    -3.2880     0.5350 H          0 REO       0.057283
    111 H54         -6.8100    -2.5570     0.5030 H          0 REO       0.035478
    112 H55         -6.6420    -1.9990     2.1680 H          0 REO       0.035478
    113 H56         -6.4520    -3.7180     1.7900 H          0 REO       0.035478
    114 H57         -2.8800     3.0870     1.7130 H          0 REO       0.057283
    115 H58         -3.1000     2.0250     3.0340 H          0 REO       0.057283
    116 H59         -5.3880     3.5940     1.7090 H          0 REO       0.035478
    117 H60         -4.5960     3.9690     3.2460 H          0 REO       0.035478
    118 H61         -5.5800     2.5090     3.0810 H          0 REO       0.035478
    119 H62          0.1030    -0.2320     3.4030 H          0 REO       0.310367
    120 H63          3.6990    -2.7450     2.3140 H          0 REO       0.057283
    121 H64          3.5740    -3.4650     0.7740 H          0 REO       0.057283
    122 H65          6.2100    -2.6670     2.1530 H          0 REO       0.035478
    123 H66          5.5610    -4.3060     1.9860 H          0 REO       0.035478
    124 H67          6.1210    -3.4220     0.5580 H          0 REO       0.035478
    125 H68          0.4250     3.8900    -0.8260 H          0 REO       0.310367
    126 H69          0.1000    -2.5760    -1.4740 H          0 REO       0.310367
@<TRIPOS>BOND
     1     1     2 1   
     2     1    58 1   
     3     1    59 1   
     4     1    60 1   
     5     2     3 1   
     6     2    61 1   
     7     2    62 1   
     8     3     4 ar  
     9     3    30 ar  
    10     4     5 1   
    11     4    53 ar  
    12     5     6 1   
    13     5    63 1   
    14     5    64 1   
    15     6     7 1   
    16     6    65 1   
    17     7     8 1   
    18     7    66 1   
    19     7    67 1   
    20     8     9 2   
    21     8    57 1   
    22     9    10 1   
    23     9    68 1   
    24    10    11 2   
    25    10    69 1   
    26    11    12 1   
    27    11    57 1   
    28    12    13 1   
    29    12    70 1   
    30    12    71 1   
    31    13    14 1   
    32    13    72 1   
    33    14    15 1   
    34    14    73 1   
    35    14    74 1   
    36    15    16 ar  
    37    15    46 ar  
    38    16    17 1   
    39    16    19 ar  
    40    17    18 1   
    41    17    75 1   
    42    17    76 1   
    43    18    77 1   
    44    18    78 1   
    45    18    79 1   
    46    19    20 1   
    47    19    49 ar  
    48    20    21 1   
    49    20    80 1   
    50    20    81 1   
    51    21    22 1   
    52    21    82 1   
    53    22    23 1   
    54    22    83 1   
    55    22    84 1   
    56    23    24 2   
    57    23    56 1   
    58    24    25 1   
    59    24    85 1   
    60    25    26 2   
    61    25    86 1   
    62    26    27 1   
    63    26    56 1   
    64    27    28 1   
    65    27    87 1   
    66    27    88 1   
    67    28    29 1   
    68    28    89 1   
    69    29    30 1   
    70    29    90 1   
    71    29    91 1   
    72    30    31 ar  
    73    31    32 1   
    74    31    34 ar  
    75    32    33 1   
    76    32    92 1   
    77    32    93 1   
    78    33    94 1   
    79    33    95 1   
    80    33    96 1   
    81    34    35 1   
    82    34    53 ar  
    83    35    36 1   
    84    35    97 1   
    85    35    98 1   
    86    36    37 1   
    87    36    99 1   
    88    37    38 1   
    89    37   100 1   
    90    37   101 1   
    91    38    39 2   
    92    38    52 1   
    93    39    40 1   
    94    39   102 1   
    95    40    41 2   
    96    40   103 1   
    97    41    42 1   
    98    41    52 1   
    99    42    43 1   
   100    42   104 1   
   101    42   105 1   
   102    43    44 1   
   103    43   106 1   
   104    44    45 1   
   105    44   107 1   
   106    44   108 1   
   107    45    46 ar  
   108    45    49 ar  
   109    46    47 1   
   110    47    48 1   
   111    47   109 1   
   112    47   110 1   
   113    48   111 1   
   114    48   112 1   
   115    48   113 1   
   116    49    50 1   
   117    50    51 1   
   118    50   114 1   
   119    50   115 1   
   120    51   116 1   
   121    51   117 1   
   122    51   118 1   
   123    52   119 1   
   124    53    54 1   
   125    54    55 1   
   126    54   120 1   
   127    54   121 1   
   128    55   122 1   
   129    55   123 1   
   130    55   124 1   
   131    56   125 1   
   132    57   126 1   
@<TRIPOS>SUBSTRUCTURE
     1 REO         1 TEMP              0 ****  ****    0 ROOT
