@<TRIPOS>MOLECULE
T6N
   80    82     1     0     0
SMALL
bcc


@<TRIPOS>ATOM
      1 C1           5.5700     0.5440    -2.4740 C          0 T6N      -0.110100
      2 C2           4.1670    -0.0920    -2.4570 C          0 T6N       0.146400
      3 C3           4.3400    -1.6200    -2.6620 C          0 T6N      -0.110100
      4 C4           3.3620     0.3890    -3.6900 C          0 T6N      -0.110100
      5 N1           3.4560     0.2560    -1.1730 N           0 T6N      -0.488800
      6 C5           3.5600    -0.6660    -0.0310 C          0 T6N       0.142300
      7 C6           2.2850    -1.4190     0.2970 C          0 T6N      -0.124300
      8 C7           2.1790    -2.0640     1.5370 C          0 T6N      -0.129000
      9 C8           1.0010    -2.7160     1.9000 C          0 T6N      -0.132000
     10 C9          -0.0890    -2.7310     1.0300 C          0 T6N      -0.110000
     11 C10         -0.0100    -2.1060    -0.2200 C          0 T6N      -0.103300
     12 C11          1.1910    -1.4740    -0.5800 C          0 T6N      -0.118000
     13 C12         -1.1740    -2.0880    -1.1920 C          0 T6N       0.120300
     14 N2          -2.4830    -1.8250    -0.5670 N           0 T6N      -0.453800
     15 C13         -3.5620    -2.8750    -0.6580 C          0 T6N       0.118400
     16 C14         -4.4620    -2.8380     0.6020 C          0 T6N      -0.107433
     17 C15         -3.0140    -4.3260    -0.7200 C          0 T6N      -0.107433
     18 C16         -4.4200    -2.6630    -1.9220 C          0 T6N      -0.107433
     19 C17         -2.8660    -0.4860    -0.3640 C           0 T6N       0.743100
     20 O1          -4.0290    -0.0980    -0.3350 O           0 T6N      -0.634100
     21 N3          -1.8180     0.3910    -0.2020 N           0 T6N      -0.531900
     22 C18         -2.0320     1.8200     0.0110 C          0 T6N       0.098700
     23 C19         -2.5730     2.1340     1.4140 C          0 T6N      -0.098400
     24 C20         -1.5620     1.9070     2.5650 C          0 T6N      -0.048000
     25 C21         -1.8810     2.8770     3.7230 C          0 T6N      -0.090100
     26 C22         -1.7310     0.4830     3.1470 C          0 T6N      -0.090100
     27 C23         -0.0950     2.0750     2.0890 C          0 T6N      -0.062400
     28 C24          0.1300     3.0250     0.8840 C          0 T6N      -0.073000
     29 C25         -0.2050     4.4870     1.2690 C          0 T6N      -0.089100
     30 C26          1.6370     3.0450     0.4780 C          0 T6N       0.080000
     31 N4           2.1740     1.7490     0.1050 N           0 T6N      -0.546900
     32 C27          3.0100     1.5710    -0.9720 C           0 T6N       0.765100
     33 O2           3.2860     2.5060    -1.7170 O           0 T6N      -0.645100
     34 C28         -0.7490     2.6050    -0.3280 C          0 T6N      -0.078400
     35 H1           6.1180     0.2680    -3.3820 H          0 T6N       0.046700
     36 H2           6.1590     0.2130    -1.6110 H          0 T6N       0.046700
     37 H3           5.5280     1.6370    -2.4390 H          0 T6N       0.046700
     38 H4           4.7350    -1.8420    -3.6610 H          0 T6N       0.046700
     39 H5           3.3860    -2.1480    -2.5630 H          0 T6N       0.046700
     40 H6           5.0520    -2.0610    -1.9570 H          0 T6N       0.046700
     41 H7           3.3370     1.4770    -3.7900 H          0 T6N       0.046700
     42 H8           2.3250     0.0350    -3.6420 H          0 T6N       0.046700
     43 H9           3.8000     0.0130    -4.6220 H          0 T6N       0.046700
     44 H10          3.8470    -0.0700     0.8450 H          0 T6N       0.062700
     45 H11          4.3780    -1.3750    -0.1690 H          0 T6N       0.062700
     46 H12          3.0120    -2.0530     2.2370 H          0 T6N       0.135000
     47 H13          0.9260    -3.2040     2.8680 H          0 T6N       0.136000
     48 H14         -1.0060    -3.2190     1.3480 H          0 T6N       0.143000
     49 H15          1.2550    -0.9820    -1.5500 H          0 T6N       0.149000
     50 H16         -1.0140    -1.3060    -1.9460 H          0 T6N       0.056200
     51 H17         -1.1700    -3.0240    -1.7510 H          0 T6N       0.056200
     52 H18         -5.0630    -1.9270     0.6730 H          0 T6N       0.045367
     53 H19         -5.1730    -3.6710     0.6080 H          0 T6N       0.045367
     54 H20         -3.8560    -2.9050     1.5130 H          0 T6N       0.045367
     55 H21         -2.5060    -4.5410    -1.6650 H          0 T6N       0.045367
     56 H22         -3.8290    -5.0570    -0.6470 H          0 T6N       0.045367
     57 H23         -2.3200    -4.5340     0.0990 H          0 T6N       0.045367
     58 H24         -4.9610    -1.7130    -1.9080 H          0 T6N       0.045367
     59 H25         -5.1690    -3.4570    -2.0280 H          0 T6N       0.045367
     60 H26         -3.7950    -2.6690    -2.8220 H          0 T6N       0.045367
     61 H27         -1.0110    -0.0030     0.2550 H          0 T6N       0.301500
     62 H28         -2.8010     2.1140    -0.7160 H          0 T6N       0.080700
     63 H29         -3.4890     1.5630     1.6080 H          0 T6N       0.057200
     64 H30         -2.8960     3.1830     1.4090 H          0 T6N       0.057200
     65 H31         -1.7910     3.9250     3.4280 H          0 T6N       0.035700
     66 H32         -2.9060     2.7300     4.0850 H          0 T6N       0.035700
     67 H33         -1.2060     2.7160     4.5710 H          0 T6N       0.035700
     68 H34         -1.5390    -0.2930     2.4030 H          0 T6N       0.035700
     69 H35         -2.7470     0.3280     3.5280 H          0 T6N       0.035700
     70 H36         -1.0370     0.3150     3.9790 H          0 T6N       0.035700
     71 H37          0.5360     2.3910     2.9310 H          0 T6N       0.037200
     72 H38          0.2800     1.0820     1.8130 H          0 T6N       0.037200
     73 H39          0.1150     5.1830     0.4850 H          0 T6N       0.039367
     74 H40          0.3070     4.7780     2.1930 H          0 T6N       0.039367
     75 H41         -1.2750     4.6530     1.4060 H          0 T6N       0.039367
     76 H42          1.7910     3.7540    -0.3440 H          0 T6N       0.068700
     77 H43          2.2470     3.3920     1.3200 H          0 T6N       0.068700
     78 H44          2.0350     0.9900     0.7470 H          0 T6N       0.300500
     79 H45         -0.1610     2.0230    -1.0500 H          0 T6N       0.059200
     80 H46         -1.0410     3.5100    -0.8780 H          0 T6N       0.059200
@<TRIPOS>BOND
     1     1     2 1   
     2     1    35 1   
     3     1    36 1   
     4     1    37 1   
     5     2     3 1   
     6     2     4 1   
     7     2     5 1   
     8     3    38 1   
     9     3    39 1   
    10     3    40 1   
    11     4    41 1   
    12     4    42 1   
    13     4    43 1   
    14     5     6 1   
    15     5    32 1   
    16     6     7 1   
    17     6    44 1   
    18     6    45 1   
    19     7     8 ar  
    20     7    12 ar  
    21     8     9 ar  
    22     8    46 1   
    23     9    10 ar  
    24     9    47 1   
    25    10    11 ar  
    26    10    48 1   
    27    11    12 ar  
    28    11    13 1   
    29    12    49 1   
    30    13    14 1   
    31    13    50 1   
    32    13    51 1   
    33    14    15 1   
    34    14    19 1   
    35    15    16 1   
    36    15    17 1   
    37    15    18 1   
    38    16    52 1   
    39    16    53 1   
    40    16    54 1   
    41    17    55 1   
    42    17    56 1   
    43    17    57 1   
    44    18    58 1   
    45    18    59 1   
    46    18    60 1   
    47    19    20 2   
    48    19    21 1   
    49    21    22 1   
    50    21    61 1   
    51    22    23 1   
    52    22    34 1   
    53    22    62 1   
    54    23    24 1   
    55    23    63 1   
    56    23    64 1   
    57    24    25 1   
    58    24    26 1   
    59    24    27 1   
    60    25    65 1   
    61    25    66 1   
    62    25    67 1   
    63    26    68 1   
    64    26    69 1   
    65    26    70 1   
    66    27    28 1   
    67    27    71 1   
    68    27    72 1   
    69    28    29 1   
    70    28    30 1   
    71    28    34 1   
    72    29    73 1   
    73    29    74 1   
    74    29    75 1   
    75    30    31 1   
    76    30    76 1   
    77    30    77 1   
    78    31    32 1   
    79    31    78 1   
    80    32    33 2   
    81    34    79 1   
    82    34    80 1   
@<TRIPOS>SUBSTRUCTURE
     1 T6N         1 TEMP              0 ****  ****    0 ROOT
