@<TRIPOS>MOLECULE
132
  115   125     1     0     0
SMALL
bcc


@<TRIPOS>ATOM
      1 C            7.7750    -2.2240    -0.2770 C          0 132      -0.089767
      2 C1           7.2480    -3.6600    -0.2870 C          0 132      -0.007700
      3 C2           7.6060    -4.3260    -1.6160 C          0 132      -0.089767
      4 C3           7.8830    -4.4440     0.8640 C          0 132      -0.089767
      5 C4           5.7500    -3.6460    -0.1190 C          0 132      -0.074300
      6 C5           5.0750    -2.4410     0.0130 C          0 132      -0.072000
      7 C6           3.7020    -2.4110     0.1550 C          0 132       0.020600
      8 C7           2.9770    -3.5950     0.1860 C          0 132       0.105100
      9 O            1.6330    -3.5860     0.3360 O          0 132      -0.252200
     10 C8           0.8920    -4.6920     0.4780 C          0 132       0.059900
     11 C9           1.4420    -5.9410     0.3560 C          0 132      -0.240200
     12 C10          2.8820    -6.0610     0.0920 C           0 132       0.581900
     13 O1           3.4060    -7.1450    -0.0930 O           0 132      -0.522100
     14 C11          3.6630    -4.8130     0.0610 C          0 132      -0.197600
     15 C12          5.0460    -4.8270    -0.1020 C          0 132      -0.061000
     16 C13         -0.5370    -4.6300     0.8010 C           0 132       0.666300
     17 O2          -0.9580    -5.4420     1.6020 O           0 132      -0.583100
     18 N           -1.4300    -3.7530     0.2890 N           0 132      -0.533900
     19 C14         -2.7700    -3.8030     0.9390 C          0 132       0.128300
     20 C15         -3.7650    -3.0960     0.0570 C          0 132      -0.131300
     21 C16         -4.0830    -3.6380    -1.1760 C          0 132      -0.113000
     22 C17         -4.9270    -2.9670    -2.0270 C          0 132      -0.110000
     23 C18         -5.4960    -1.7430    -1.6400 C          0 132      -0.041800
     24 C19         -6.3080    -0.7960    -2.4020 C          0 132      -0.074400
     25 C20         -6.6290    -0.7310    -3.7080 C          0 132      -0.107000
     26 C21         -7.3550     0.4720    -4.1550 C          0 132      -0.149000
     27 C22         -7.3750     1.5690    -3.3990 C          0 132      -0.148200
     28 C23         -6.6540     1.6030    -2.0620 C          0 132      -0.045200
     29 C24         -6.8530     0.2330    -1.4230 C          0 132      -0.014500
     30 H           -7.9260     0.0600    -1.2400 H          0 132       0.072700
     31 C25         -6.0680     0.0060    -0.1360 C          0 132       0.095900
     32 C26         -5.2590    -1.2480    -0.3480 C          0 132      -0.071300
     33 C27         -4.3690    -1.9200     0.4730 C          0 132      -0.095000
     34 C28         -5.2380     1.1850     0.2530 C          0 132      -0.075300
     35 C29         -4.1790     1.8130    -0.3700 C          0 132      -0.099000
     36 C30         -3.6260     2.9420     0.2410 C          0 132      -0.132300
     37 C31         -2.5110     3.6550    -0.4640 C          0 132       0.128300
     38 N1          -1.2160     3.5270     0.2370 N           0 132      -0.532900
     39 C32         -0.4190     4.6060     0.1700 C           0 132       0.666300
     40 O3          -0.9890     5.6760     0.0970 O           0 132      -0.583100
     41 C33          1.0430     4.6670     0.1750 C          0 132       0.059900
     42 C34          1.6020     5.9060     0.1090 C          0 132      -0.240200
     43 C35          3.0620     6.0290     0.0480 C           0 132       0.581900
     44 O4           3.6130     7.1150     0.0160 O           0 132      -0.522100
     45 C36          3.8310     4.7710     0.0290 C          0 132      -0.197600
     46 C37          5.2220     4.7810    -0.0830 C          0 132      -0.060000
     47 C38          5.9120     3.5880    -0.0910 C          0 132      -0.074300
     48 C39          5.2230     2.3890     0.0190 C          0 132      -0.072000
     49 C40          3.8490     2.3590     0.1370 C          0 132       0.020600
     50 N2           3.1780     1.1410     0.2440 N           0 132      -0.441100
     51 C41          3.8140    -0.0480     0.1940 C           0 132       0.750100
     52 O5           5.0220    -0.1180     0.0740 O           0 132      -0.604100
     53 N3           3.0380    -1.1730     0.2810 N           0 132      -0.441100
     54 C42          3.1330     3.5560     0.1370 C          0 132       0.105100
     55 O6           1.7810     3.5530     0.2310 O          0 132      -0.251200
     56 C43          7.4130     3.5860    -0.2170 C          0 132      -0.007700
     57 C44          8.0250     4.3590     0.9530 C          0 132      -0.089767
     58 C45          7.9250     2.1440    -0.1990 C          0 132      -0.089767
     59 C46          7.8150     4.2530    -1.5350 C          0 132      -0.089767
     60 C47         -4.0910     3.4010     1.4580 C          0 132      -0.113000
     61 C48         -5.1540     2.7810     2.0930 C          0 132      -0.109000
     62 C49         -5.7370     1.6710     1.4810 C          0 132      -0.030000
     63 C50         -6.8620     0.8410     1.9110 C          0 132      -0.046000
     64 C51         -7.0620    -0.1920     0.9800 C          0 132      -0.078300
     65 C52         -8.0490    -1.1400     1.1390 C          0 132      -0.108000
     66 C53         -8.8690    -1.0110     2.2560 C          0 132      -0.124000
     67 C54         -8.6950     0.0110     3.1690 C          0 132      -0.129000
     68 C55         -7.6910     0.9580     3.0290 C          0 132      -0.103000
     69 H1           7.3230    -1.6650    -1.0970 H          0 132       0.040922
     70 H2           7.5200    -1.7490     0.6700 H          0 132       0.040922
     71 H3           8.8580    -2.2340    -0.3990 H          0 132       0.040922
     72 H4           8.6890    -4.3360    -1.7370 H          0 132       0.040922
     73 H5           7.2300    -5.3500    -1.6230 H          0 132       0.040922
     74 H6           7.1540    -3.7680    -2.4360 H          0 132       0.040922
     75 H7           7.6270    -3.9690     1.8110 H          0 132       0.040922
     76 H8           7.5070    -5.4670     0.8580 H          0 132       0.040922
     77 H9           8.9660    -4.4540     0.7430 H          0 132       0.040922
     78 H10          5.6300    -1.5150     0.0050 H          0 132       0.176000
     79 H11          0.8260    -6.8230     0.4520 H          0 132       0.195000
     80 H12          5.5670    -5.7670    -0.2120 H          0 132       0.166000
     81 H13         -1.2180    -3.1450    -0.4370 H          0 132       0.313500
     82 H14         -3.0730    -4.8420     1.0720 H          0 132       0.077200
     83 H15         -2.7250    -3.3070     1.9090 H          0 132       0.077200
     84 H16         -3.6680    -4.5900    -1.4690 H          0 132       0.151000
     85 H17         -5.1530    -3.3820    -2.9980 H          0 132       0.142000
     86 H18         -6.3670    -1.5220    -4.3960 H          0 132       0.135000
     87 H19         -7.8750     0.4650    -5.1020 H          0 132       0.133000
     88 H20         -7.9090     2.4440    -3.7400 H          0 132       0.129000
     89 H21         -5.5910     1.7920    -2.2160 H          0 132       0.063200
     90 H22         -7.0830     2.3780    -1.4260 H          0 132       0.063200
     91 H23         -4.1430    -1.5230     1.4510 H          0 132       0.143000
     92 H24         -3.7870     1.4410    -1.3050 H          0 132       0.143000
     93 H25         -2.4090     3.2440    -1.4680 H          0 132       0.076700
     94 H26         -2.7640     4.7130    -0.5430 H          0 132       0.076700
     95 H27         -0.9590     2.7210     0.7110 H          0 132       0.313500
     96 H28          0.9780     6.7880     0.1010 H          0 132       0.195000
     97 H29          5.7540     5.7170    -0.1630 H          0 132       0.166000
     98 H30          5.7740     1.4610     0.0120 H          0 132       0.176000
     99 H31          2.2150     1.1490     0.3600 H          0 132       0.312500
    100 H32          2.0800    -1.1220     0.4230 H          0 132       0.312500
    101 H33          7.7390     3.8840     1.8910 H          0 132       0.040922
    102 H34          9.1110     4.3580     0.8610 H          0 132       0.040922
    103 H35          7.6610     5.3860     0.9400 H          0 132       0.040922
    104 H36          7.4890     1.5930    -1.0330 H          0 132       0.040922
    105 H37          9.0110     2.1430    -0.2910 H          0 132       0.040922
    106 H38          7.6390     1.6690     0.7390 H          0 132       0.040922
    107 H39          7.4500     5.2800    -1.5480 H          0 132       0.040922
    108 H40          8.9010     4.2510    -1.6260 H          0 132       0.040922
    109 H41          7.3790     3.7020    -2.3680 H          0 132       0.040922
    110 H42         -3.6200     4.2550     1.9210 H          0 132       0.152000
    111 H43         -5.5220     3.1470     3.0400 H          0 132       0.142000
    112 H44         -8.1800    -1.9440     0.4300 H          0 132       0.143000
    113 H45         -9.6610    -1.7280     2.4120 H          0 132       0.135000
    114 H46         -9.3610     0.0740     4.0170 H          0 132       0.135000
    115 H47         -7.5570     1.7490     3.7520 H          0 132       0.138000
@<TRIPOS>BOND
     1     1     2 1   
     2     1    69 1   
     3     1    70 1   
     4     1    71 1   
     5     2     3 1   
     6     2     4 1   
     7     2     5 1   
     8     3    72 1   
     9     3    73 1   
    10     3    74 1   
    11     4    75 1   
    12     4    76 1   
    13     4    77 1   
    14     5     6 ar  
    15     5    15 ar  
    16     6     7 ar  
    17     6    78 1   
    18     7     8 ar  
    19     7    53 1   
    20     8     9 1   
    21     8    14 ar  
    22     9    10 1   
    23    10    11 2   
    24    10    16 1   
    25    11    12 1   
    26    11    79 1   
    27    12    13 2   
    28    12    14 1   
    29    14    15 ar  
    30    15    80 1   
    31    16    17 2   
    32    16    18 1   
    33    18    19 1   
    34    18    81 1   
    35    19    20 1   
    36    19    82 1   
    37    19    83 1   
    38    20    21 ar  
    39    20    33 ar  
    40    21    22 ar  
    41    21    84 1   
    42    22    23 ar  
    43    22    85 1   
    44    23    24 1   
    45    23    32 ar  
    46    24    25 2   
    47    24    29 1   
    48    25    26 1   
    49    25    86 1   
    50    26    27 2   
    51    26    87 1   
    52    27    28 1   
    53    27    88 1   
    54    28    29 1   
    55    28    89 1   
    56    28    90 1   
    57    29    30 1   
    58    29    31 1   
    59    31    32 1   
    60    31    34 1   
    61    31    64 1   
    62    32    33 ar  
    63    33    91 1   
    64    34    35 ar  
    65    34    62 ar  
    66    35    36 ar  
    67    35    92 1   
    68    36    37 1   
    69    36    60 ar  
    70    37    38 1   
    71    37    93 1   
    72    37    94 1   
    73    38    39 1   
    74    38    95 1   
    75    39    40 2   
    76    39    41 1   
    77    41    42 2   
    78    41    55 1   
    79    42    43 1   
    80    42    96 1   
    81    43    44 2   
    82    43    45 1   
    83    45    46 ar  
    84    45    54 ar  
    85    46    47 ar  
    86    46    97 1   
    87    47    48 ar  
    88    47    56 1   
    89    48    49 ar  
    90    48    98 1   
    91    49    50 1   
    92    49    54 ar  
    93    50    51 1   
    94    50    99 1   
    95    51    52 2   
    96    51    53 1   
    97    53   100 1   
    98    54    55 1   
    99    56    57 1   
   100    56    58 1   
   101    56    59 1   
   102    57   101 1   
   103    57   102 1   
   104    57   103 1   
   105    58   104 1   
   106    58   105 1   
   107    58   106 1   
   108    59   107 1   
   109    59   108 1   
   110    59   109 1   
   111    60    61 ar  
   112    60   110 1   
   113    61    62 ar  
   114    61   111 1   
   115    62    63 1   
   116    63    64 ar  
   117    63    68 ar  
   118    64    65 ar  
   119    65    66 ar  
   120    65   112 1   
   121    66    67 ar  
   122    66   113 1   
   123    67    68 ar  
   124    67   114 1   
   125    68   115 1   
@<TRIPOS>SUBSTRUCTURE
     1 132         1 TEMP              0 ****  ****    0 ROOT
