@<TRIPOS>MOLECULE
49
  189   200     1     0     0
SMALL
bcc


@<TRIPOS>ATOM
      1 C1           8.2950     0.6570     3.5470 C          1 49       -0.057800
      2 C2           7.7410     1.0790     2.2180 C          1 49       -0.093800
      3 C3           8.2200     0.5040     1.0340 C          1 49       -0.104000
      4 C4           7.6790     0.8530    -0.2150 C          1 49       -0.120300
      5 C5           8.2660     0.2600    -1.4770 C          1 49        0.014200
      6 C6           7.3350    -0.5560    -2.3520 C          1 49       -0.120300
      7 C7           7.0100    -0.0470    -3.6240 C          1 49       -0.104000
      8 C8           6.2200    -0.7700    -4.5240 C          1 49       -0.093800
      9 C9           5.9030    -0.2070    -5.8780 C          1 49       -0.057800
     10 C10          5.7900    -2.0500    -4.1680 C          1 49       -0.096000
     11 C11          6.0950    -2.5900    -2.9090 C          1 49       -0.117800
     12 C12          5.6290    -3.9890    -2.5730 C          1 49        0.012700
     13 C13          4.1700    -4.0820    -2.1900 C          1 49       -0.108300
     14 C14          3.2480    -4.5400    -3.1470 C          1 49       -0.131500
     15 C15          1.8770    -4.6770    -2.8720 C          1 49       -0.006400
     16 C16          1.4320    -4.3650    -1.5920 C          1 49       -0.091000
     17 C17          2.3280    -3.9010    -0.6050 C          1 49       -0.102300
     18 C18          1.8190    -3.5960     0.7910 C          1 49        0.014200
     19 C19          0.9020    -2.3960     0.9090 C          1 49       -0.130800
     20 C20         -0.3580    -2.5970     1.5030 C          1 49       -0.089500
     21 C21         -1.2660    -1.5480     1.6720 C          1 49       -0.098300
     22 C22         -2.5840    -1.7930     2.3420 C          1 49       -0.049800
     23 C23         -0.9100    -0.2700     1.2450 C          1 49       -0.089500
     24 C24          0.3360    -0.0340     0.6430 C          1 49       -0.130800
     25 C25          0.6510     1.3490     0.1320 C          1 49        0.014200
     26 C26          1.6190     2.1440     0.9830 C          1 49       -0.102300
     27 C27          1.1540     2.7290     2.1820 C          1 49       -0.091000
     28 C28          1.9760     3.5400     2.9560 C          1 49       -0.006400
     29 C29          3.2830     3.7770     2.5020 C          1 49       -0.131500
     30 C30          3.7820     3.2060     1.3200 C          1 49       -0.108300
     31 C31          5.1770     3.5550     0.8610 C          1 49        0.012700
     32 C32          6.1810     2.4260     0.9140 C          1 49       -0.117800
     33 C33          6.7180     2.0310     2.1490 C          1 49       -0.096000
     34 C34          6.6480     1.8000    -0.2500 C          1 49        0.121100
     35 O1           6.0950     2.1170    -1.4600 O          1 49       -0.524100
     36 C35          2.9440     2.3660     0.5860 C          1 49        0.125100
     37 O2           3.4450     1.7730    -0.5420 O          1 49       -0.532100
     38 N1           1.6280     4.2110     4.1380 N           1 49       -0.447600
     39 C36          0.5610     4.2890     4.9700 C           1 49        0.632100
     40 O3           0.6470     5.1540     5.8580 O           1 49       -0.586600
     41 C37         -0.6830     3.3770     4.9310 C          1 49        0.055700
     42 C38         -0.5580     2.1530     5.8960 C          1 49       -0.055000
     43 C39         -1.8430     1.3020     5.8300 C          1 49       -0.097433
     44 C40          0.6140     1.2440     5.4750 C          1 49       -0.097433
     45 C41         -0.3410     2.5750     7.3630 C          1 49       -0.097433
     46 N2          -1.8020     4.2790     5.2950 N           1 49       -0.551400
     47 C42         -2.5010     4.9810     4.3350 C           1 49        0.667700
     48 O4          -2.6970     6.1850     4.4230 O           1 49       -0.586600
     49 C43         -3.0520     4.2340     3.1870 C          1 49       -0.147100
     50 C44         -2.8320     4.6990     1.8870 C          1 49       -0.039250
     51 C45         -3.3710     3.9850     0.8140 C          1 49       -0.151850
     52 C46         -4.1600     2.8460     1.0460 C          1 49       -0.049000
     53 C47         -4.3840     2.3930     2.3470 C          1 49       -0.151850
     54 C48         -3.8230     3.0910     3.4200 C          1 49       -0.039250
     55 C49         -5.1280     1.1410     2.6380 C           1 49        0.669950
     56 O5          -4.8430     0.5040     3.6460 O           1 49       -0.607100
     57 N3          -6.0940     0.7500     1.7380 N           1 49       -0.556650
     58 C50         -6.8130    -0.5150     1.8830 C          1 49        0.089200
     59 C51         -8.3300    -0.2730     1.8910 C          1 49       -0.092400
     60 C52         -9.1500    -1.5280     1.5790 C          1 49       -0.081150
     61 C53         -8.3830    -2.8110     1.8670 C          1 49       -0.081150
     62 C54         -7.0830    -2.9110     1.0630 C          1 49       -0.092400
     63 C55         -6.3910    -1.5590     0.8120 C          1 49        0.089200
     64 N4          -6.6830    -1.0960    -0.5610 N           1 49       -0.556650
     65 C56         -5.8860    -0.1780    -1.2030 C           1 49        0.669950
     66 O6          -6.3630     0.9130    -1.5020 O           1 49       -0.607100
     67 C57         -4.4810    -0.5220    -1.5610 C          1 49       -0.151850
     68 C58         -3.6600     0.5000    -2.0710 C          1 49       -0.049000
     69 C59         -2.3370     0.2370    -2.4560 C          1 49       -0.151850
     70 C60         -1.8500    -1.0740    -2.3740 C          1 49       -0.039250
     71 C61         -2.6780    -2.0920    -1.8900 C          1 49       -0.147100
     72 C62         -3.9870    -1.8240    -1.4800 C          1 49       -0.039250
     73 C63         -2.1930    -3.4830    -1.7940 C           1 49        0.667700
     74 O7          -2.2770    -4.0900    -0.7360 O           1 49       -0.586600
     75 N5          -1.7230    -4.0140    -2.9680 N           1 49       -0.551400
     76 C64         -1.3000    -5.4110    -3.1050 C          1 49        0.055700
     77 C65         -2.5010    -6.3840    -3.4210 C          1 49       -0.055000
     78 C66         -3.4170    -6.5270    -2.1830 C          1 49       -0.097433
     79 C67         -1.9640    -7.7990    -3.7370 C          1 49       -0.097433
     80 C68         -3.3880    -5.9080    -4.5890 C          1 49       -0.097433
     81 C69         -0.2100    -5.3950    -4.1930 C           1 49        0.632100
     82 O8          -0.4930    -5.5650    -5.3870 O           1 49       -0.586600
     83 N6           1.0960    -5.0990    -3.9590 N           1 49       -0.447600
     84 C70         -1.4060     1.3000    -2.9470 C           1 49        0.669950
     85 O9          -0.4680     0.9890    -3.6710 O           1 49       -0.607100
     86 N7          -1.6420     2.5840    -2.5040 N           1 49       -0.556650
     87 C71         -0.8840     3.7650    -2.9340 C          1 49        0.089200
     88 C72          0.6160     3.6850    -2.6170 C          1 49       -0.092400
     89 C73          1.3930     4.8300    -3.2740 C          1 49       -0.081150
     90 C74          0.5560     6.0910    -3.4880 C          1 49       -0.081150
     91 C75         -0.4770     6.2680    -2.3840 C          1 49       -0.092400
     92 C76         -1.4650     5.0890    -2.3080 C          1 49        0.089200
     93 N8          -1.9050     4.9280    -0.9060 N           1 49       -0.556650
     94 C77         -3.1210     4.3550    -0.6010 C           1 49        0.669950
     95 O10         -3.9230     4.0150    -1.4650 O           1 49       -0.607100
     96 C78          1.2450    -1.0960     0.5060 C          1 49        0.144100
     97 O11          2.4720    -0.7970    -0.0320 O          1 49       -0.534100
     98 C79          3.6840    -3.7380    -0.9280 C          1 49        0.125100
     99 O12          4.4860    -3.1890     0.0360 O          1 49       -0.532100
    100 C80          6.8340    -1.8170    -1.9990 C          1 49        0.121100
    101 O13          7.0320    -2.3520    -0.7520 O          1 49       -0.524100
    102 H1           8.2420     1.4760     4.2720 H          1 49        0.049533
    103 H2           7.7280    -0.1950     3.9340 H          1 49        0.049533
    104 H3           9.3490     0.3710     3.4590 H          1 49        0.049533
    105 H4           9.0360    -0.2150     1.0900 H          1 49        0.138000
    106 H5           8.7080     1.0840    -2.0540 H          1 49        0.063200
    107 H6           9.1210    -0.3830    -1.2270 H          1 49        0.063200
    108 H7           7.3740     0.9390    -3.9130 H          1 49        0.138000
    109 H8           5.8210     0.8840    -5.8380 H          1 49        0.049533
    110 H9           4.9450    -0.5900    -6.2460 H          1 49        0.049533
    111 H10          6.6890    -0.4780    -6.5890 H          1 49        0.049533
    112 H11          5.2070    -2.6320    -4.8790 H          1 49        0.137000
    113 H12          5.8280    -4.6350    -3.4400 H          1 49        0.065200
    114 H13          6.2410    -4.4360    -1.7800 H          1 49        0.065200
    115 H14          3.6220    -4.7920    -4.1390 H          1 49        0.140500
    116 H15          0.3920    -4.4380    -1.3070 H          1 49        0.153000
    117 H16          2.6410    -3.4560     1.5040 H          1 49        0.063950
    118 H17          1.3080    -4.5010     1.1440 H          1 49        0.063950
    119 H18         -0.6460    -3.5960     1.8310 H          1 49        0.142000
    120 H19         -3.3270    -1.0700     1.9980 H          1 49        0.044033
    121 H20         -2.9670    -2.7900     2.1010 H          1 49        0.044033
    122 H21         -2.4770    -1.7030     3.4270 H          1 49        0.044033
    123 H22         -1.6160     0.5480     1.3720 H          1 49        0.142000
    124 H23         -0.2760     1.9330     0.0480 H          1 49        0.063950
    125 H24          1.0010     1.2700    -0.9040 H          1 49        0.063950
    126 H25          0.1270     2.5280     2.4390 H          1 49        0.153000
    127 H26          3.9420     4.4280     3.0760 H          1 49        0.140500
    128 H27          5.1150     3.9870    -0.1460 H          1 49        0.065200
    129 H28          5.5760     4.3800     1.4680 H          1 49        0.065200
    130 H29          6.3520     2.4920     3.0650 H          1 49        0.137000
    131 H30          5.1230     2.1280    -1.3190 H          1 49        0.436000
    132 H31          3.0630     0.8640    -0.5660 H          1 49        0.453500
    133 H32          2.3260     4.8690     4.4720 H          1 49        0.299500
    134 H33         -0.8750     3.0330     3.9240 H          1 49        0.094700
    135 H34         -2.0500     0.9790     4.8040 H          1 49        0.044756
    136 H35         -1.7520     0.3990     6.4450 H          1 49        0.044756
    137 H36         -2.7110     1.8560     6.2010 H          1 49        0.044756
    138 H37          0.4960     0.8990     4.4420 H          1 49        0.044756
    139 H38          1.5780     1.7560     5.5590 H          1 49        0.044756
    140 H39          0.6690     0.3530     6.1110 H          1 49        0.044756
    141 H40         -0.3140     1.6990     8.0220 H          1 49        0.044756
    142 H41         -1.1470     3.2250     7.7210 H          1 49        0.044756
    143 H42          0.6080     3.1030     7.4980 H          1 49        0.044756
    144 H43         -1.5300     4.9230     6.0380 H          1 49        0.329500
    145 H44         -2.2610     5.6110     1.7320 H          1 49        0.165500
    146 H45         -4.5660     2.3040     0.1960 H          1 49        0.160000
    147 H46         -4.0070     2.7560     4.4390 H          1 49        0.165500
    148 H47         -6.3290     1.3320     0.9400 H          1 49        0.321750
    149 H48         -6.5470    -0.9420     2.8590 H          1 49        0.079950
    150 H49         -8.6070     0.5130     1.1760 H          1 49        0.055575
    151 H50         -8.6160     0.1150     2.8770 H          1 49        0.055575
    152 H51         -9.4470    -1.5180     0.5230 H          1 49        0.048075
    153 H52        -10.0820    -1.5080     2.1560 H          1 49        0.048075
    154 H53         -9.0130    -3.6820     1.6530 H          1 49        0.048075
    155 H54         -8.1510    -2.8550     2.9390 H          1 49        0.048075
    156 H55         -7.2790    -3.4200     0.1110 H          1 49        0.055575
    157 H56         -6.3980    -3.5640     1.6180 H          1 49        0.055575
    158 H57         -5.3090    -1.7010     0.8840 H          1 49        0.079950
    159 H58         -7.6440    -0.7860    -0.6520 H          1 49        0.321750
    160 H59         -4.0870     1.4920    -2.1920 H          1 49        0.160000
    161 H60         -0.8220    -1.2940    -2.6580 H          1 49        0.165500
    162 H61         -4.6090    -2.6450    -1.1330 H          1 49        0.165500
    163 H62         -1.7900    -3.4670    -3.8210 H          1 49        0.329500
    164 H63         -0.8560    -5.7600    -2.1690 H          1 49        0.094700
    165 H64         -2.8410    -6.7940    -1.2900 H          1 49        0.044756
    166 H65         -4.1670    -7.3130    -2.3340 H          1 49        0.044756
    167 H66         -3.9710    -5.6060    -1.9780 H          1 49        0.044756
    168 H67         -1.3180    -8.1620    -2.9300 H          1 49        0.044756
    169 H68         -2.7840    -8.5170    -3.8540 H          1 49        0.044756
    170 H69         -1.3880    -7.8260    -4.6670 H          1 49        0.044756
    171 H70         -4.2380    -6.5860    -4.7320 H          1 49        0.044756
    172 H71         -2.8500    -5.8750    -5.5400 H          1 49        0.044756
    173 H72         -3.8010    -4.9110    -4.4010 H          1 49        0.044756
    174 H73          1.5970    -5.1760    -4.8380 H          1 49        0.299500
    175 H74         -2.5830     2.7990    -2.1970 H          1 49        0.321750
    176 H75         -1.0010     3.8120    -4.0250 H          1 49        0.079950
    177 H76          0.7570     3.7380    -1.5310 H          1 49        0.055575
    178 H77          1.0610     2.7380    -2.9340 H          1 49        0.055575
    179 H78          2.2660     5.0630    -2.6530 H          1 49        0.048075
    180 H79          1.7860     4.5030    -4.2450 H          1 49        0.048075
    181 H80          1.2150     6.9650    -3.5360 H          1 49        0.048075
    182 H81          0.0450     6.0340    -4.4570 H          1 49        0.048075
    183 H82          0.0530     6.3920    -1.4300 H          1 49        0.055575
    184 H83         -1.0360     7.1990    -2.5410 H          1 49        0.055575
    185 H84         -2.3600     5.3470    -2.8900 H          1 49        0.079950
    186 H85         -1.1810     4.9260    -0.1990 H          1 49        0.321750
    187 H86          3.0640    -1.5660     0.0910 H          1 49        0.447000
    188 H87          5.3910    -3.0610    -0.3150 H          1 49        0.453500
    189 H88          7.3850    -1.6530    -0.1750 H          1 49        0.436000
@<TRIPOS>BOND
     1     1     2 1   
     2     1   102 1   
     3     1   103 1   
     4     1   104 1   
     5     2     3 ar  
     6     2    33 ar  
     7     3     4 ar  
     8     3   105 1   
     9     4     5 1   
    10     4    34 ar  
    11     5     6 1   
    12     5   106 1   
    13     5   107 1   
    14     6     7 ar  
    15     6   100 ar  
    16     7     8 ar  
    17     7   108 1   
    18     8     9 1   
    19     8    10 ar  
    20     9   109 1   
    21     9   110 1   
    22     9   111 1   
    23    10    11 ar  
    24    10   112 1   
    25    11    12 1   
    26    11   100 ar  
    27    12    13 1   
    28    12   113 1   
    29    12   114 1   
    30    13    14 ar  
    31    13    98 ar  
    32    14    15 ar  
    33    14   115 1   
    34    15    16 ar  
    35    15    83 1   
    36    16    17 ar  
    37    16   116 1   
    38    17    18 1   
    39    17    98 ar  
    40    18    19 1   
    41    18   117 1   
    42    18   118 1   
    43    19    20 ar  
    44    19    96 ar  
    45    20    21 ar  
    46    20   119 1   
    47    21    22 1   
    48    21    23 ar  
    49    22   120 1   
    50    22   121 1   
    51    22   122 1   
    52    23    24 ar  
    53    23   123 1   
    54    24    25 1   
    55    24    96 ar  
    56    25    26 1   
    57    25   124 1   
    58    25   125 1   
    59    26    27 ar  
    60    26    36 ar  
    61    27    28 ar  
    62    27   126 1   
    63    28    29 ar  
    64    28    38 1   
    65    29    30 ar  
    66    29   127 1   
    67    30    31 1   
    68    30    36 ar  
    69    31    32 1   
    70    31   128 1   
    71    31   129 1   
    72    32    33 ar  
    73    32    34 ar  
    74    33   130 1   
    75    34    35 1   
    76    35   131 1   
    77    36    37 1   
    78    37   132 1   
    79    38    39 1   
    80    38   133 1   
    81    39    40 2   
    82    39    41 1   
    83    41    42 1   
    84    41    46 1   
    85    41   134 1   
    86    42    43 1   
    87    42    44 1   
    88    42    45 1   
    89    43   135 1   
    90    43   136 1   
    91    43   137 1   
    92    44   138 1   
    93    44   139 1   
    94    44   140 1   
    95    45   141 1   
    96    45   142 1   
    97    45   143 1   
    98    46    47 1   
    99    46   144 1   
   100    47    48 2   
   101    47    49 1   
   102    49    50 ar  
   103    49    54 ar  
   104    50    51 ar  
   105    50   145 1   
   106    51    52 ar  
   107    51    94 1   
   108    52    53 ar  
   109    52   146 1   
   110    53    54 ar  
   111    53    55 1   
   112    54   147 1   
   113    55    56 2   
   114    55    57 1   
   115    57    58 1   
   116    57   148 1   
   117    58    59 1   
   118    58    63 1   
   119    58   149 1   
   120    59    60 1   
   121    59   150 1   
   122    59   151 1   
   123    60    61 1   
   124    60   152 1   
   125    60   153 1   
   126    61    62 1   
   127    61   154 1   
   128    61   155 1   
   129    62    63 1   
   130    62   156 1   
   131    62   157 1   
   132    63    64 1   
   133    63   158 1   
   134    64    65 1   
   135    64   159 1   
   136    65    66 2   
   137    65    67 1   
   138    67    68 ar  
   139    67    72 ar  
   140    68    69 ar  
   141    68   160 1   
   142    69    70 ar  
   143    69    84 1   
   144    70    71 ar  
   145    70   161 1   
   146    71    72 ar  
   147    71    73 1   
   148    72   162 1   
   149    73    74 2   
   150    73    75 1   
   151    75    76 1   
   152    75   163 1   
   153    76    77 1   
   154    76    81 1   
   155    76   164 1   
   156    77    78 1   
   157    77    79 1   
   158    77    80 1   
   159    78   165 1   
   160    78   166 1   
   161    78   167 1   
   162    79   168 1   
   163    79   169 1   
   164    79   170 1   
   165    80   171 1   
   166    80   172 1   
   167    80   173 1   
   168    81    82 2   
   169    81    83 1   
   170    83   174 1   
   171    84    85 2   
   172    84    86 1   
   173    86    87 1   
   174    86   175 1   
   175    87    88 1   
   176    87    92 1   
   177    87   176 1   
   178    88    89 1   
   179    88   177 1   
   180    88   178 1   
   181    89    90 1   
   182    89   179 1   
   183    89   180 1   
   184    90    91 1   
   185    90   181 1   
   186    90   182 1   
   187    91    92 1   
   188    91   183 1   
   189    91   184 1   
   190    92    93 1   
   191    92   185 1   
   192    93    94 1   
   193    93   186 1   
   194    94    95 2   
   195    96    97 1   
   196    97   187 1   
   197    98    99 1   
   198    99   188 1   
   199   100   101 1   
   200   101   189 1   
@<TRIPOS>SUBSTRUCTURE
     1 49          1 TEMP              0 ****  ****    0 ROOT
