@<TRIPOS>MOLECULE
73
   93    96     1     0     0
SMALL
bcc


@<TRIPOS>ATOM
      1 C            5.4160    -0.9600     2.5260 C          0 73       -0.105100
      2 C1           4.1100    -0.1850     2.7120 C          0 73        0.041033
      3 H            4.1510     0.3810     3.6430 H          0 73        0.095367
      4 N            3.9200     0.7420     1.5790 N           0 73       -0.573900
      5 C2           3.1930     1.8660     1.8280 C           0 73        0.639433
      6 O            2.7270     2.0660     2.9300 O           0 73       -0.606433
      7 C3           2.9760     2.8580     0.7140 C          0 73        0.078767
      8 H1           3.9140     3.3700     0.4970 H          0 73        0.103700
      9 C4           2.4960     2.1210    -0.5380 C          0 73       -0.052767
     10 C5           3.6860     1.5950    -1.2990 C          0 73       -0.101300
     11 C6           3.9710     0.2430    -1.2880 C          0 73       -0.129667
     12 C7           5.0620    -0.2400    -1.9850 C          0 73       -0.127667
     13 C8           5.8680     0.6300    -2.6950 C          0 73       -0.127333
     14 C9           5.5830     1.9830    -2.7080 C          0 73       -0.127667
     15 C10          4.4890     2.4650    -2.0130 C          0 73       -0.129667
     16 O1           1.9920     3.8140     1.1100 O          0 73       -0.231567
     17 N1           1.1660     4.0080    -0.0690 N           0 73       -0.376733
     18 C11         -0.1730     3.8710     0.2500 C           0 73        0.610433
     19 O2          -0.5260     3.6300     1.3850 O           0 73       -0.557100
     20 C12         -1.1770     4.0310    -0.8620 C          0 73        0.041033
     21 H2          -1.3980     5.0890    -1.0060 H          0 73        0.095367
     22 C13         -0.6090     3.4450    -2.1560 C          0 73       -0.105100
     23 N2          -2.4160     3.3110    -0.4860 N           0 73       -0.573900
     24 C14         -2.3440     1.9480    -0.5720 C           0 73        0.639433
     25 O3          -1.3250     1.4040    -0.9400 O           0 73       -0.606433
     26 C15         -3.5580     1.1360    -0.2000 C          0 73        0.078767
     27 H3          -3.5200     0.8910     0.8610 H          0 73        0.103700
     28 C16         -4.8230     1.9460    -0.4910 C          0 73       -0.052767
     29 C17         -6.0290     1.1840    -0.0070 C          0 73       -0.101300
     30 C18         -6.4890     1.3660     1.2850 C          0 73       -0.129667
     31 C19         -7.5960     0.6670     1.7290 C          0 73       -0.127667
     32 C20         -8.2440    -0.2130     0.8820 C          0 73       -0.127333
     33 C21         -7.7850    -0.3940    -0.4090 C          0 73       -0.127667
     34 C22         -6.6800     0.3080    -0.8550 C          0 73       -0.129667
     35 O4          -3.5770    -0.0700    -0.9670 O          0 73       -0.231567
     36 N3          -3.5230    -1.1360     0.0310 N           0 73       -0.376733
     37 C23         -2.5710    -2.0680    -0.3710 C           0 73        0.610433
     38 O5          -1.9430    -1.9280    -1.3990 O           0 73       -0.557100
     39 C24         -2.3520    -3.2580     0.5270 C          0 73        0.041033
     40 H4          -2.5890    -2.9880     1.5560 H          0 73        0.095367
     41 C25         -3.2530    -4.4110     0.0790 C          0 73       -0.105100
     42 N4          -0.9360    -3.6680     0.4360 N           0 73       -0.573900
     43 C26         -0.0470    -2.9460     1.1720 C           0 73        0.639433
     44 O6          -0.4260    -2.0220     1.8600 O           0 73       -0.606433
     45 C27          1.4140    -3.3110     1.1210 C          0 73        0.078767
     46 H5           1.5230    -4.3260     0.7370 H          0 73        0.103700
     47 C28          2.1520    -2.3370     0.2000 C          0 73       -0.052767
     48 C29          1.6840    -2.5350    -1.2190 C          0 73       -0.101300
     49 C30          0.7140    -1.7050    -1.7490 C          0 73       -0.129667
     50 C31          0.2850    -1.8860    -3.0500 C          0 73       -0.127667
     51 C32          0.8270    -2.8980    -3.8220 C          0 73       -0.127333
     52 C33          1.7980    -3.7270    -3.2920 C          0 73       -0.127667
     53 C34          2.2300    -3.5420    -1.9920 C          0 73       -0.129667
     54 O7           1.9690    -3.2370     2.4360 O          0 73       -0.231567
     55 N5           3.1710    -2.4340     2.2910 N           0 73       -0.376733
     56 C35          2.9540    -1.1500     2.7590 C           0 73        0.610433
     57 O8           1.8720    -0.8130     3.1910 O           0 73       -0.557100
     58 H6           6.2460    -0.2580     2.4450 H          0 73        0.058367
     59 H7           5.5750    -1.6150     3.3830 H          0 73        0.058367
     60 H8           5.3570    -1.5590     1.6170 H          0 73        0.058367
     61 H9           4.2940     0.5600     0.7020 H          0 73        0.326833
     62 H10          1.8550     1.2890    -0.2470 H          0 73        0.079533
     63 H11          1.9350     2.8080    -1.1710 H          0 73        0.079533
     64 H12          3.3410    -0.4370    -0.7330 H          0 73        0.144167
     65 H13          5.2850    -1.2970    -1.9760 H          0 73        0.135500
     66 H14          6.7210     0.2530    -3.2400 H          0 73        0.133667
     67 H15          6.2130     2.6630    -3.2620 H          0 73        0.135500
     68 H16          4.2660     3.5210    -2.0230 H          0 73        0.144167
     69 H17          1.5060     4.2070    -0.9560 H          0 73        0.323833
     70 H18         -0.1510     2.4780    -1.9470 H          0 73        0.058367
     71 H19         -1.4130     3.3160    -2.8810 H          0 73        0.058367
     72 H20          0.1420     4.1210    -2.5630 H          0 73        0.058367
     73 H21         -3.2190     3.7730    -0.1990 H          0 73        0.326833
     74 H22         -4.7670     2.9040     0.0250 H          0 73        0.079533
     75 H23         -4.9070     2.1150    -1.5650 H          0 73        0.079533
     76 H24         -5.9830     2.0530     1.9460 H          0 73        0.144167
     77 H25         -7.9540     0.8090     2.7380 H          0 73        0.135500
     78 H26         -9.1080    -0.7590     1.2300 H          0 73        0.133667
     79 H27         -8.2910    -1.0810    -1.0710 H          0 73        0.135500
     80 H28         -6.3220     0.1670    -1.8640 H          0 73        0.144167
     81 H29         -4.0600    -1.1860     0.8370 H          0 73        0.323833
     82 H30         -3.0110    -4.6830    -0.9480 H          0 73        0.058367
     83 H31         -3.0930    -5.2710     0.7300 H          0 73        0.058367
     84 H32         -4.2960    -4.1010     0.1370 H          0 73        0.058367
     85 H33         -0.6540    -4.4130    -0.1180 H          0 73        0.326833
     86 H34          1.9430    -1.3130     0.5120 H          0 73        0.079533
     87 H35          3.2240    -2.5220     0.2590 H          0 73        0.079533
     88 H36          0.2910    -0.9150    -1.1460 H          0 73        0.144167
     89 H37         -0.4730    -1.2380    -3.4640 H          0 73        0.135500
     90 H38          0.4910    -3.0400    -4.8380 H          0 73        0.133667
     91 H39          2.2210    -4.5170    -3.8940 H          0 73        0.135500
     92 H40          2.9880    -4.1900    -1.5780 H          0 73        0.144167
     93 H41          4.0080    -2.7540     1.9200 H          0 73        0.323833
@<TRIPOS>BOND
     1     1     2 1   
     2     1    58 1   
     3     1    59 1   
     4     1    60 1   
     5     2     3 1   
     6     2     4 1   
     7     2    56 1   
     8     4     5 1   
     9     4    61 1   
    10     5     6 2   
    11     5     7 1   
    12     7     8 1   
    13     7     9 1   
    14     7    16 1   
    15     9    10 1   
    16     9    62 1   
    17     9    63 1   
    18    10    11 ar  
    19    10    15 ar  
    20    11    12 ar  
    21    11    64 1   
    22    12    13 ar  
    23    12    65 1   
    24    13    14 ar  
    25    13    66 1   
    26    14    15 ar  
    27    14    67 1   
    28    15    68 1   
    29    16    17 1   
    30    17    18 1   
    31    17    69 1   
    32    18    19 2   
    33    18    20 1   
    34    20    21 1   
    35    20    22 1   
    36    20    23 1   
    37    22    70 1   
    38    22    71 1   
    39    22    72 1   
    40    23    24 1   
    41    23    73 1   
    42    24    25 2   
    43    24    26 1   
    44    26    27 1   
    45    26    28 1   
    46    26    35 1   
    47    28    29 1   
    48    28    74 1   
    49    28    75 1   
    50    29    30 ar  
    51    29    34 ar  
    52    30    31 ar  
    53    30    76 1   
    54    31    32 ar  
    55    31    77 1   
    56    32    33 ar  
    57    32    78 1   
    58    33    34 ar  
    59    33    79 1   
    60    34    80 1   
    61    35    36 1   
    62    36    37 1   
    63    36    81 1   
    64    37    38 2   
    65    37    39 1   
    66    39    40 1   
    67    39    41 1   
    68    39    42 1   
    69    41    82 1   
    70    41    83 1   
    71    41    84 1   
    72    42    43 1   
    73    42    85 1   
    74    43    44 2   
    75    43    45 1   
    76    45    46 1   
    77    45    47 1   
    78    45    54 1   
    79    47    48 1   
    80    47    86 1   
    81    47    87 1   
    82    48    49 ar  
    83    48    53 ar  
    84    49    50 ar  
    85    49    88 1   
    86    50    51 ar  
    87    50    89 1   
    88    51    52 ar  
    89    51    90 1   
    90    52    53 ar  
    91    52    91 1   
    92    53    92 1   
    93    54    55 1   
    94    55    56 1   
    95    55    93 1   
    96    56    57 2   
@<TRIPOS>SUBSTRUCTURE
     1 73          1 TEMP              0 ****  ****    0 ROOT
