@<TRIPOS>MOLECULE
ASB
  124   130     1     0     0
SMALL
bcc


@<TRIPOS>ATOM
      1 C1          -2.6690     0.0420     1.3370 C          1 ASB      -0.070175
      2 C2          -3.5260    -0.6310     0.2840 C          1 ASB      -0.057300
      3 C3          -4.6400    -1.4180     0.6950 C          1 ASB      -0.057300
      4 C4          -4.9730    -1.5160     2.1710 C          1 ASB      -0.070175
      5 C5          -5.4110    -2.1280    -0.2700 C          1 ASB      -0.114550
      6 C6          -6.4720    -3.1400     0.1780 C          1 ASB       0.122300
      7 N1          -5.8480    -4.2470     0.8980 N           1 ASB      -0.514900
      8 C7          -5.1510    -5.2290     0.2290 C           1 ASB       0.653950
      9 O1          -5.1550    -5.3990    -0.9810 O           1 ASB      -0.560850
     10 C8          -4.1670    -5.9910     1.0390 C          1 ASB      -0.022650
     11 C9          -4.5740    -6.6950     2.1670 C          1 ASB      -0.103000
     12 C10         -3.6170    -7.2770     2.9870 C          1 ASB       0.006250
     13 C11         -2.2700    -7.0780     2.7070 C          1 ASB      -0.090250
     14 C12         -1.8820    -6.3300     1.5840 C          1 ASB      -0.006550
     15 C13         -0.4830    -5.9030     1.3850 C          1 ASB      -0.006550
     16 C14          0.5230    -6.7670     0.9360 C          1 ASB      -0.090250
     17 C15          1.7680    -6.2570     0.5800 C          1 ASB       0.006250
     18 C16          1.9800    -4.8830     0.5950 C          1 ASB      -0.103000
     19 C17          0.9680    -4.0470     1.0600 C          1 ASB      -0.022650
     20 C18          0.9580    -2.5880     0.7510 C           1 ASB       0.653950
     21 O2          -0.1440    -2.1020     0.5010 O           1 ASB      -0.560850
     22 N2           2.1230    -1.8520     0.7200 N           1 ASB      -0.514900
     23 C19          2.0470    -0.4780     0.2520 C          1 ASB       0.122300
     24 C20          3.3010     0.3420     0.4890 C          1 ASB      -0.114550
     25 C21          4.1890     0.6120    -0.5860 C          1 ASB      -0.057300
     26 C22          3.9920    -0.0830    -1.9200 C          1 ASB      -0.070175
     27 C23          5.2310     1.5710    -0.4320 C          1 ASB      -0.057300
     28 C24          6.1310     1.8610    -1.6180 C          1 ASB      -0.070175
     29 C25          5.4470     2.1930     0.8290 C          1 ASB      -0.114550
     30 C26          6.4260     3.3640     0.9620 C          1 ASB       0.122300
     31 N3           5.8740     4.5350     0.2810 N           1 ASB      -0.514900
     32 C27          4.9360     5.3310     0.9010 C           1 ASB       0.653950
     33 O3           4.6850     5.3200     2.0970 O           1 ASB      -0.560850
     34 C28          4.0390     6.1040     0.0040 C          1 ASB      -0.022650
     35 C29          4.5680     6.9820    -0.9370 C          1 ASB      -0.103000
     36 C30          3.7170     7.6050    -1.8370 C          1 ASB       0.006250
     37 C31          2.3630     7.2900    -1.8260 C          1 ASB      -0.090250
     38 C32          1.8570     6.3720    -0.8930 C          1 ASB      -0.006550
     39 C33          0.4700     5.8720    -0.9740 C          1 ASB      -0.006550
     40 C34         -0.6240     6.6110    -0.5080 C          1 ASB      -0.090250
     41 C35         -1.8750     6.0120    -0.4110 C          1 ASB       0.006250
     42 C36         -2.0140     4.6610    -0.7060 C          1 ASB      -0.103000
     43 C37         -0.9150     3.9480    -1.1850 C          1 ASB      -0.022650
     44 C38         -0.9090     2.4530    -1.2070 C           1 ASB       0.653950
     45 O4           0.1760     1.9060    -1.0190 O           1 ASB      -0.560850
     46 N4          -2.0810     1.7480    -1.3900 N           1 ASB      -0.514900
     47 C39         -2.0180     0.3030    -1.5510 C          1 ASB       0.122300
     48 C40         -3.2690    -0.4280    -1.0970 C          1 ASB      -0.114550
     49 C41         -4.1640    -0.9710    -2.0560 C          1 ASB      -0.057300
     50 C42         -4.0300    -0.6010    -3.5210 C          1 ASB      -0.070175
     51 C43         -5.1720    -1.8920    -1.6520 C          1 ASB      -0.057300
     52 C44         -6.0290    -2.5770    -2.7030 C          1 ASB      -0.070175
     53 N5           0.2790     4.5880    -1.4170 N          1 ASB       0.059150
     54 C45          1.3200     3.9120    -2.2520 C          1 ASB      -0.046900
     55 N6           2.6920     5.8400     0.0590 N          1 ASB       0.059150
     56 C46          2.1800     5.0360     1.2120 C          1 ASB      -0.046900
     57 C47          4.6870     1.7560     1.9500 C          1 ASB      -0.057300
     58 C48          5.0420     2.2400     3.3450 C          1 ASB      -0.070175
     59 C49          3.5770     0.8830     1.7700 C          1 ASB      -0.057300
     60 C50          2.7330     0.5160     2.9750 C          1 ASB      -0.070175
     61 N7          -0.1970    -4.5740     1.5580 N          1 ASB       0.059150
     62 C51         -1.0900    -3.7030     2.3820 C          1 ASB      -0.046900
     63 N8          -2.8380    -5.8620     0.7170 N          1 ASB       0.059150
     64 C52         -2.4920    -5.2830    -0.6210 C          1 ASB      -0.046900
     65 H1          -3.1550     0.9630     1.6760 H          1 ASB       0.056492
     66 H2          -2.5090    -0.6210     2.1940 H          1 ASB       0.056492
     67 H3          -1.6670     0.2960     0.9880 H          1 ASB       0.056492
     68 H4          -4.3670    -2.2980     2.6390 H          1 ASB       0.056492
     69 H5          -4.7920    -0.5660     2.6830 H          1 ASB       0.056492
     70 H6          -6.0290    -1.7290     2.3490 H          1 ASB       0.056492
     71 H7          -7.1980    -2.6600     0.8420 H          1 ASB       0.098325
     72 H8          -7.0540    -3.5590    -0.6440 H          1 ASB       0.098325
     73 H9          -5.8560    -4.1810     1.9080 H          1 ASB       0.336500
     74 H10         -5.6330    -6.8110     2.4000 H          1 ASB       0.223250
     75 H11         -3.9230    -7.8580     3.8590 H          1 ASB       0.226250
     76 H12         -1.5290    -7.4910     3.3940 H          1 ASB       0.216500
     77 H13          0.3410    -7.8380     0.8270 H          1 ASB       0.216500
     78 H14          2.5500    -6.9280     0.2160 H          1 ASB       0.226250
     79 H15          2.9070    -4.4850     0.1860 H          1 ASB       0.223250
     80 H16          3.0470    -2.2480     0.8620 H          1 ASB       0.336500
     81 H17          1.1890     0.0200     0.7190 H          1 ASB       0.098325
     82 H18          1.7750    -0.5110    -0.8090 H          1 ASB       0.098325
     83 H19          3.6570    -1.1160    -1.7810 H          1 ASB       0.056492
     84 H20          4.9190    -0.1680    -2.4930 H          1 ASB       0.056492
     85 H21          3.2560     0.4630    -2.5190 H          1 ASB       0.056492
     86 H22          5.5280     2.1170    -2.4960 H          1 ASB       0.056492
     87 H23          6.8170     2.6950    -1.4710 H          1 ASB       0.056492
     88 H24          6.7480     0.9830    -1.8360 H          1 ASB       0.056492
     89 H25          6.6280     3.6460     1.9970 H          1 ASB       0.098325
     90 H26          7.3950     3.1170     0.5180 H          1 ASB       0.098325
     91 H27          6.0470     4.5890    -0.7140 H          1 ASB       0.336500
     92 H28          5.6360     7.2010    -0.9570 H          1 ASB       0.223250
     93 H29          4.1140     8.3190    -2.5620 H          1 ASB       0.226250
     94 H30          1.7140     7.7550    -2.5710 H          1 ASB       0.216500
     95 H31         -0.5100     7.6480    -0.1850 H          1 ASB       0.216500
     96 H32         -2.7290     6.5820    -0.0360 H          1 ASB       0.226250
     97 H33         -2.9670     4.1740    -0.5070 H          1 ASB       0.223250
     98 H34         -2.9500     2.1900    -1.6720 H          1 ASB       0.336500
     99 H35         -1.1520    -0.1060    -1.0200 H          1 ASB       0.098325
    100 H36         -1.7820     0.1100    -2.6040 H          1 ASB       0.098325
    101 H37         -3.6100     0.4010    -3.6490 H          1 ASB       0.056492
    102 H38         -3.3980    -1.3280    -4.0390 H          1 ASB       0.056492
    103 H39         -5.0070    -0.5450    -4.0110 H          1 ASB       0.056492
    104 H40         -5.5700    -2.5700    -3.6950 H          1 ASB       0.056492
    105 H41         -7.0050    -2.0850    -2.7650 H          1 ASB       0.056492
    106 H42         -6.1650    -3.6380    -2.4870 H          1 ASB       0.056492
    107 H43          2.0350     3.4270    -1.5840 H          1 ASB       0.111700
    108 H44          1.8200     4.6620    -2.8700 H          1 ASB       0.111700
    109 H45          0.8470     3.2090    -2.9420 H          1 ASB       0.111700
    110 H46          1.1060     4.8710     1.1410 H          1 ASB       0.111700
    111 H47          2.3590     5.6030     2.1280 H          1 ASB       0.111700
    112 H48          2.6700     4.0600     1.2010 H          1 ASB       0.111700
    113 H49          4.7280     1.5350     4.1200 H          1 ASB       0.056492
    114 H50          4.5730     3.2060     3.5460 H          1 ASB       0.056492
    115 H51          6.1260     2.3140     3.4760 H          1 ASB       0.056492
    116 H52          1.7680     0.0740     2.7230 H          1 ASB       0.056492
    117 H53          3.2720    -0.2070     3.5970 H          1 ASB       0.056492
    118 H54          2.4980     1.4080     3.5650 H          1 ASB       0.056492
    119 H55         -0.5130    -2.8870     2.8270 H          1 ASB       0.111700
    120 H56         -1.4880    -4.2940     3.2110 H          1 ASB       0.111700
    121 H57         -1.8980    -3.3360     1.7470 H          1 ASB       0.111700
    122 H58         -1.4140    -5.2600    -0.7760 H          1 ASB       0.111700
    123 H59         -2.8700    -4.2580    -0.6640 H          1 ASB       0.111700
    124 H60         -2.9120    -5.9330    -1.3910 H          1 ASB       0.111700
@<TRIPOS>BOND
     1     1     2 1   
     2     1    65 1   
     3     1    66 1   
     4     1    67 1   
     5     2     3 ar  
     6     2    48 ar  
     7     3     4 1   
     8     3     5 ar  
     9     4    68 1   
    10     4    69 1   
    11     4    70 1   
    12     5     6 1   
    13     5    51 ar  
    14     6     7 1   
    15     6    71 1   
    16     6    72 1   
    17     7     8 1   
    18     7    73 1   
    19     8     9 2   
    20     8    10 1   
    21    10    11 2   
    22    10    63 1   
    23    11    12 1   
    24    11    74 1   
    25    12    13 2   
    26    12    75 1   
    27    13    14 1   
    28    13    76 1   
    29    14    15 2   
    30    14    63 1   
    31    15    16 1   
    32    15    61 1   
    33    16    17 2   
    34    16    77 1   
    35    17    18 1   
    36    17    78 1   
    37    18    19 2   
    38    18    79 1   
    39    19    20 1   
    40    19    61 1   
    41    20    21 2   
    42    20    22 1   
    43    22    23 1   
    44    22    80 1   
    45    23    24 1   
    46    23    81 1   
    47    23    82 1   
    48    24    25 ar  
    49    24    59 ar  
    50    25    26 1   
    51    25    27 ar  
    52    26    83 1   
    53    26    84 1   
    54    26    85 1   
    55    27    28 1   
    56    27    29 ar  
    57    28    86 1   
    58    28    87 1   
    59    28    88 1   
    60    29    30 1   
    61    29    57 ar  
    62    30    31 1   
    63    30    89 1   
    64    30    90 1   
    65    31    32 1   
    66    31    91 1   
    67    32    33 2   
    68    32    34 1   
    69    34    35 2   
    70    34    55 1   
    71    35    36 1   
    72    35    92 1   
    73    36    37 2   
    74    36    93 1   
    75    37    38 1   
    76    37    94 1   
    77    38    39 2   
    78    38    55 1   
    79    39    40 1   
    80    39    53 1   
    81    40    41 2   
    82    40    95 1   
    83    41    42 1   
    84    41    96 1   
    85    42    43 2   
    86    42    97 1   
    87    43    44 1   
    88    43    53 1   
    89    44    45 2   
    90    44    46 1   
    91    46    47 1   
    92    46    98 1   
    93    47    48 1   
    94    47    99 1   
    95    47   100 1   
    96    48    49 ar  
    97    49    50 1   
    98    49    51 ar  
    99    50   101 1   
   100    50   102 1   
   101    50   103 1   
   102    51    52 1   
   103    52   104 1   
   104    52   105 1   
   105    52   106 1   
   106    53    54 1   
   107    54   107 1   
   108    54   108 1   
   109    54   109 1   
   110    55    56 1   
   111    56   110 1   
   112    56   111 1   
   113    56   112 1   
   114    57    58 1   
   115    57    59 ar  
   116    58   113 1   
   117    58   114 1   
   118    58   115 1   
   119    59    60 1   
   120    60   116 1   
   121    60   117 1   
   122    60   118 1   
   123    61    62 1   
   124    62   119 1   
   125    62   120 1   
   126    62   121 1   
   127    63    64 1   
   128    64   122 1   
   129    64   123 1   
   130    64   124 1   
@<TRIPOS>SUBSTRUCTURE
     1 ASB         1 TEMP              0 ****  ****    0 ROOT
