@<TRIPOS>MOLECULE
URE
  100   106     1     0     0
SMALL
bcc


@<TRIPOS>ATOM
      1 O            1.9330     7.4910     0.0220 O          0 URE      -0.593350
      2 C            2.4380     6.4030    -0.5800 C           0 URE       0.613350
      3 O1           3.2380     6.5250    -1.4770 O           0 URE      -0.559250
      4 C1           2.0060     5.0280    -0.1380 C          0 URE       0.071950
      5 C2           0.6480     4.6900    -0.7560 C          0 URE      -0.047050
      6 S           -0.6610     5.0390     0.4530 S          0 URE      -0.134350
      7 S1          -2.2730     4.2960    -0.5660 S          0 URE      -0.134350
      8 C3          -3.5020     4.1910     0.7600 C          0 URE      -0.047050
      9 C4          -4.8750     3.8800     0.1560 C          0 URE       0.071950
     10 N           -4.8490     2.4860    -0.3450 N           0 URE      -0.559150
     11 C5          -5.6040     1.5950     0.3590 C           0 URE       0.674450
     12 O2          -6.2670     1.9580     1.3120 O           0 URE      -0.571100
     13 C6          -5.5990     0.1930    -0.0560 C          0 URE      -0.102350
     14 C7          -5.2790    -0.1870    -1.3820 C          0 URE      -0.007125
     15 C8          -5.3380     0.7290    -2.4420 C          0 URE      -0.130375
     16 C9          -5.0300     0.3200    -3.7010 C          0 URE      -0.112375
     17 C10         -4.6220    -0.9850    -3.9630 C          0 URE      -0.112375
     18 C11         -4.5260    -1.9170    -2.9770 C          0 URE      -0.130375
     19 C12         -4.8510    -1.5680    -1.6550 C          0 URE      -0.007125
     20 C13         -4.7540    -2.5010    -0.5920 C          0 URE      -0.102350
     21 C14         -5.4470    -2.2020     0.6120 C          0 URE      -0.007125
     22 C15         -5.7040    -3.1860     1.5810 C          0 URE      -0.130375
     23 C16         -6.3270    -2.8470     2.7450 C          0 URE      -0.112375
     24 C17         -6.7400    -1.5400     2.9910 C          0 URE      -0.112375
     25 C18         -6.5370    -0.5430     2.0930 C          0 URE      -0.130375
     26 C19         -5.8830    -0.8250     0.8870 C          0 URE      -0.007125
     27 C20         -3.8650    -3.6690    -0.6770 C           0 URE       0.674450
     28 O3          -4.0280    -4.6100     0.0760 O           0 URE      -0.571100
     29 N1          -2.8590    -3.7000    -1.5980 N           0 URE      -0.559150
     30 C21         -1.9010    -4.8230    -1.4700 C          0 URE       0.071950
     31 C22         -0.4750    -4.2710    -1.5630 C          0 URE      -0.047050
     32 S2           0.5600    -5.0340    -0.2840 S          0 URE      -0.134350
     33 S3           2.4220    -4.4630    -0.9200 S          0 URE      -0.134350
     34 C23          3.2950    -4.3640     0.6650 C          0 URE      -0.047050
     35 C24          4.7450    -3.9340     0.4410 C          0 URE       0.071950
     36 N2           4.8710    -2.4970     0.7740 N           0 URE      -0.559150
     37 C25          5.4880    -1.7230    -0.1690 C           0 URE       0.674450
     38 O4           6.0070    -2.2300    -1.1440 O           0 URE      -0.571100
     39 C26          5.5100    -0.2690     0.0200 C          0 URE      -0.102350
     40 C27          5.7670     0.5970    -1.0760 C          0 URE      -0.007125
     41 C28          6.3740     0.1260    -2.2490 C          0 URE      -0.130375
     42 C29          6.5500     0.9720    -3.2970 C          0 URE      -0.112375
     43 C30          6.1430     2.3010    -3.2370 C          0 URE      -0.112375
     44 C31          5.5640     2.8240    -2.1260 C          0 URE      -0.130375
     45 C32          5.3680     2.0110    -0.9960 C          0 URE      -0.007125
     46 C33          4.8060     2.5150     0.1950 C          0 URE      -0.102350
     47 C34          4.9540     1.7420     1.3840 C          0 URE      -0.007125
     48 C35          4.7570     2.3210     2.6480 C          0 URE      -0.130375
     49 C36          4.8910     1.5510     3.7610 C          0 URE      -0.112375
     50 C37          5.1890     0.1950     3.6750 C          0 URE      -0.112375
     51 C38          5.3700    -0.4270     2.4800 C          0 URE      -0.130375
     52 C39          5.2890     0.3160     1.2950 C          0 URE      -0.007125
     53 C40          3.9900     3.7190     0.2590 C           0 URE       0.674450
     54 O5           4.2200     4.5110     1.1530 O           0 URE      -0.571100
     55 N3           2.9910     4.0230    -0.5990 N           0 URE      -0.559150
     56 C41          5.6550    -4.7410     1.3320 C           0 URE       0.613350
     57 O6           6.0070    -5.9870     0.9800 O          0 URE      -0.593350
     58 O7           6.0670    -4.2660     2.3640 O           0 URE      -0.559250
     59 C42         -2.0940    -5.5020    -0.1390 C           0 URE       0.613350
     60 O8          -2.3810    -6.8130    -0.0900 O          0 URE      -0.593350
     61 O9          -1.9910    -4.8670     0.8840 O           0 URE      -0.559250
     62 C43         -5.9400     4.0210     1.2130 C           0 URE       0.613350
     63 O10         -7.2290     4.1380     0.8560 O          0 URE      -0.593350
     64 O11         -5.6340     4.0280     2.3820 O           0 URE      -0.559250
     65 H            2.2100     8.3730    -0.2620 H          0 URE       0.450250
     66 H1           1.9320     4.9990     0.9500 H          0 URE       0.135200
     67 H2           0.4920     5.2980    -1.6480 H          0 URE       0.099950
     68 H3           0.6230     3.6340    -1.0250 H          0 URE       0.099950
     69 H4          -3.2210     3.3980     1.4530 H          0 URE       0.099950
     70 H5          -3.5450     5.1410     1.2920 H          0 URE       0.099950
     71 H6          -5.0800     4.5640    -0.6670 H          0 URE       0.135200
     72 H7          -4.3310     2.2240    -1.1220 H          0 URE       0.326750
     73 H8          -5.6280     1.7530    -2.2590 H          0 URE       0.153000
     74 H9          -5.1020     1.0240    -4.5170 H          0 URE       0.144000
     75 H10         -4.3760    -1.2660    -4.9770 H          0 URE       0.144000
     76 H11         -4.2030    -2.9210    -3.2090 H          0 URE       0.153000
     77 H12         -5.4080    -4.2090     1.4040 H          0 URE       0.153000
     78 H13         -6.5050    -3.6080     3.4910 H          0 URE       0.144000
     79 H14         -7.2370    -1.3140     3.9230 H          0 URE       0.144000
     80 H15         -6.8770     0.4590     2.3080 H          0 URE       0.153000
     81 H16         -2.7760    -3.0280    -2.2930 H          0 URE       0.326750
     82 H17         -2.0690    -5.5390    -2.2750 H          0 URE       0.135200
     83 H18         -0.0620    -4.4970    -2.5460 H          0 URE       0.099950
     84 H19         -0.4940    -3.1910    -1.4170 H          0 URE       0.099950
     85 H20          2.7980    -3.6360     1.3070 H          0 URE       0.099950
     86 H21          3.2780    -5.3400     1.1480 H          0 URE       0.099950
     87 H22          5.0170    -4.0930    -0.6020 H          0 URE       0.135200
     88 H23          4.5380    -2.1290     1.6080 H          0 URE       0.326750
     89 H24          6.6990    -0.9010    -2.3180 H          0 URE       0.153000
     90 H25          7.0180     0.6050    -4.1980 H          0 URE       0.144000
     91 H26          6.2910     2.9340    -4.0990 H          0 URE       0.144000
     92 H27          5.2550     3.8590    -2.1110 H          0 URE       0.153000
     93 H28          4.5020     3.3670     2.7360 H          0 URE       0.153000
     94 H29          4.7610     2.0020     4.7330 H          0 URE       0.144000
     95 H30          5.2810    -0.3800     4.5850 H          0 URE       0.144000
     96 H31          5.5760    -1.4870     2.4450 H          0 URE       0.153000
     97 H32          2.9180     3.6040    -1.4710 H          0 URE       0.326750
     98 H33          6.5900    -6.5050     1.5510 H          0 URE       0.450250
     99 H34         -2.5050    -7.2490     0.7650 H          0 URE       0.450250
    100 H35         -7.9120     4.2290     1.5350 H          0 URE       0.450250
@<TRIPOS>BOND
     1     1     2 1   
     2     1    65 1   
     3     2     3 2   
     4     2     4 1   
     5     4     5 1   
     6     4    55 1   
     7     4    66 1   
     8     5     6 1   
     9     5    67 1   
    10     5    68 1   
    11     6     7 1   
    12     7     8 1   
    13     8     9 1   
    14     8    69 1   
    15     8    70 1   
    16     9    10 1   
    17     9    62 1   
    18     9    71 1   
    19    10    11 1   
    20    10    72 1   
    21    11    12 2   
    22    11    13 1   
    23    13    14 ar  
    24    13    26 ar  
    25    14    15 ar  
    26    14    19 ar  
    27    15    16 ar  
    28    15    73 1   
    29    16    17 ar  
    30    16    74 1   
    31    17    18 ar  
    32    17    75 1   
    33    18    19 ar  
    34    18    76 1   
    35    19    20 ar  
    36    20    21 ar  
    37    20    27 1   
    38    21    22 ar  
    39    21    26 ar  
    40    22    23 ar  
    41    22    77 1   
    42    23    24 ar  
    43    23    78 1   
    44    24    25 ar  
    45    24    79 1   
    46    25    26 ar  
    47    25    80 1   
    48    27    28 2   
    49    27    29 1   
    50    29    30 1   
    51    29    81 1   
    52    30    31 1   
    53    30    59 1   
    54    30    82 1   
    55    31    32 1   
    56    31    83 1   
    57    31    84 1   
    58    32    33 1   
    59    33    34 1   
    60    34    35 1   
    61    34    85 1   
    62    34    86 1   
    63    35    36 1   
    64    35    56 1   
    65    35    87 1   
    66    36    37 1   
    67    36    88 1   
    68    37    38 2   
    69    37    39 1   
    70    39    40 ar  
    71    39    52 ar  
    72    40    41 ar  
    73    40    45 ar  
    74    41    42 ar  
    75    41    89 1   
    76    42    43 ar  
    77    42    90 1   
    78    43    44 ar  
    79    43    91 1   
    80    44    45 ar  
    81    44    92 1   
    82    45    46 ar  
    83    46    47 ar  
    84    46    53 1   
    85    47    48 ar  
    86    47    52 ar  
    87    48    49 ar  
    88    48    93 1   
    89    49    50 ar  
    90    49    94 1   
    91    50    51 ar  
    92    50    95 1   
    93    51    52 ar  
    94    51    96 1   
    95    53    54 2   
    96    53    55 1   
    97    55    97 1   
    98    56    57 1   
    99    56    58 2   
   100    57    98 1   
   101    59    60 1   
   102    59    61 2   
   103    60    99 1   
   104    62    63 1   
   105    62    64 2   
   106    63   100 1   
@<TRIPOS>SUBSTRUCTURE
     1 URE         1 TEMP              0 ****  ****    0 ROOT
