@<TRIPOS>MOLECULE
188
   72    78     1     0     0
SMALL
bcc


@<TRIPOS>ATOM
      1 C            6.1010    -1.2460     0.5880 C          0 188      -0.054800
      2 C1           4.9720    -0.3220     0.2110 C          0 188      -0.064600
      3 C2           4.8850     0.9850     0.5000 C          0 188      -0.064600
      4 C3           5.8990     1.8010     1.2590 C          0 188      -0.054800
      5 N            3.7050     1.4390    -0.0200 N          0 188      -0.021100
      6 C4           3.0800     0.4110    -0.5540 C          0 188      -0.042600
      7 N1           3.8590    -0.6560    -0.4890 N          0 188      -0.021100
      8 C5           3.6700    -1.9540    -1.1200 C          0 188       0.070600
      9 C6           2.4920    -2.7490    -0.6650 C          0 188      -0.135300
     10 C7           1.3270    -2.1720    -0.2600 C          0 188      -0.098000
     11 C8           0.2140    -2.9860     0.0370 C          0 188      -0.056000
     12 C9          -0.9970    -2.4310     0.4920 C          0 188      -0.098000
     13 C10         -2.0720    -3.2430     0.6810 C          0 188      -0.135300
     14 C11         -3.3750    -2.7180     1.2110 C          0 188       0.070600
     15 N2          -3.7070    -1.3920     0.6990 N          0 188      -0.021100
     16 C12         -3.4800    -0.2610     1.3450 C          0 188      -0.042600
     17 N3          -3.9860     0.7430     0.6450 N          0 188      -0.021100
     18 C13         -3.9910     2.1360     1.0720 C          0 188       0.070600
     19 C14         -2.7790     2.8720     0.5680 C          0 188      -0.135300
     20 C15         -2.9620     4.1690     0.0830 C          0 188      -0.101000
     21 C16         -1.9170     4.9060    -0.3820 C          0 188      -0.095000
     22 C17         -0.6270     4.3510    -0.3490 C          0 188      -0.008000
     23 C18          0.4810     5.0820    -0.8020 C          0 188      -0.095000
     24 C19          1.7210     4.5440    -0.6830 C          0 188      -0.101000
     25 C20          1.9350     3.2580    -0.1490 C          0 188      -0.135300
     26 C21          3.3560     2.8460     0.0010 C          0 188       0.070600
     27 C22          0.8710     2.4990     0.2300 C          0 188      -0.098000
     28 C23         -0.4300     3.0370     0.1530 C          0 188      -0.056000
     29 C24         -1.5500     2.2980     0.5850 C          0 188      -0.098000
     30 C25         -4.5000     0.2410    -0.4990 C          0 188      -0.064600
     31 C26         -5.1540     1.0250    -1.6070 C          0 188      -0.054800
     32 C27         -4.3160    -1.0960    -0.4640 C          0 188      -0.064600
     33 C28         -4.7200    -2.0790    -1.5320 C          0 188      -0.054800
     34 C29         -1.9940    -4.6100     0.4010 C          0 188      -0.101000
     35 C30         -0.8330    -5.1930     0.0010 C          0 188      -0.095000
     36 C31          0.3160    -4.3930    -0.1230 C          0 188      -0.008000
     37 C32          1.5720    -4.9640    -0.3770 C          0 188      -0.095000
     38 C33          2.6230    -4.1490    -0.6550 C          0 188      -0.101000
     39 H            5.8930    -1.6960     1.5590 H          0 188       0.086367
     40 H1           6.1950    -2.0300    -0.1630 H          0 188       0.086367
     41 H2           7.0310    -0.6810     0.6420 H          0 188       0.086367
     42 H3           6.6200     2.2250     0.5600 H          0 188       0.086367
     43 H4           5.3930     2.6060     1.7910 H          0 188       0.086367
     44 H5           6.4180     1.1630     1.9740 H          0 188       0.086367
     45 H6           2.0890     0.4360    -0.9820 H          0 188       0.246000
     46 H7           3.5770    -1.7960    -2.1950 H          0 188       0.103700
     47 H8           4.5670    -2.5480    -0.9460 H          0 188       0.103700
     48 H9           1.2550    -1.0990    -0.1670 H          0 188       0.141000
     49 H10         -1.0720    -1.3720     0.6890 H          0 188       0.141000
     50 H11         -4.1700    -3.4110     0.9350 H          0 188       0.103700
     51 H12         -3.3180    -2.6710     2.2990 H          0 188       0.103700
     52 H13         -2.9650    -0.1700     2.2900 H          0 188       0.246000
     53 H14         -4.8880     2.6230     0.6890 H          0 188       0.103700
     54 H15         -4.0040     2.1750     2.1620 H          0 188       0.103700
     55 H16         -3.9540     4.5960     0.0760 H          0 188       0.156000
     56 H17         -2.0760     5.9010    -0.7700 H          0 188       0.166000
     57 H18          0.3490     6.0610    -1.2390 H          0 188       0.166000
     58 H19          2.5730     5.1220    -1.0100 H          0 188       0.156000
     59 H20          3.7140     3.2540     0.9460 H          0 188       0.103700
     60 H21          3.9220     3.3380    -0.7910 H          0 188       0.103700
     61 H22          1.0220     1.4910     0.5880 H          0 188       0.141000
     62 H23         -1.4300     1.2810     0.9290 H          0 188       0.141000
     63 H24         -4.3990     1.3280    -2.3330 H          0 188       0.086367
     64 H25         -5.9030     0.4050    -2.0990 H          0 188       0.086367
     65 H26         -5.6330     1.9120    -1.1910 H          0 188       0.086367
     66 H27         -3.9020    -2.2020    -2.2410 H          0 188       0.086367
     67 H28         -4.9510    -3.0400    -1.0730 H          0 188       0.086367
     68 H29         -5.6010    -1.7050    -2.0550 H          0 188       0.086367
     69 H30         -2.8790    -5.2190     0.5050 H          0 188       0.156000
     70 H31         -0.7930    -6.2500    -0.2160 H          0 188       0.166000
     71 H32          1.7020    -6.0360    -0.3520 H          0 188       0.166000
     72 H33          3.5850    -4.5880    -0.8730 H          0 188       0.156000
@<TRIPOS>BOND
     1     1     2 1   
     2     1    39 1   
     3     1    40 1   
     4     1    41 1   
     5     2     3 2   
     6     2     7 1   
     7     3     4 1   
     8     3     5 1   
     9     4    42 1   
    10     4    43 1   
    11     4    44 1   
    12     5     6 2   
    13     5    26 1   
    14     6     7 1   
    15     6    45 1   
    16     7     8 1   
    17     8     9 1   
    18     8    46 1   
    19     8    47 1   
    20     9    10 ar  
    21     9    38 ar  
    22    10    11 ar  
    23    10    48 1   
    24    11    12 ar  
    25    11    36 ar  
    26    12    13 ar  
    27    12    49 1   
    28    13    14 1   
    29    13    34 ar  
    30    14    15 1   
    31    14    50 1   
    32    14    51 1   
    33    15    16 2   
    34    15    32 1   
    35    16    17 1   
    36    16    52 1   
    37    17    18 1   
    38    17    30 1   
    39    18    19 1   
    40    18    53 1   
    41    18    54 1   
    42    19    20 ar  
    43    19    29 ar  
    44    20    21 ar  
    45    20    55 1   
    46    21    22 ar  
    47    21    56 1   
    48    22    23 ar  
    49    22    28 ar  
    50    23    24 ar  
    51    23    57 1   
    52    24    25 ar  
    53    24    58 1   
    54    25    26 1   
    55    25    27 ar  
    56    26    59 1   
    57    26    60 1   
    58    27    28 ar  
    59    27    61 1   
    60    28    29 ar  
    61    29    62 1   
    62    30    31 1   
    63    30    32 2   
    64    31    63 1   
    65    31    64 1   
    66    31    65 1   
    67    32    33 1   
    68    33    66 1   
    69    33    67 1   
    70    33    68 1   
    71    34    35 ar  
    72    34    69 1   
    73    35    36 ar  
    74    35    70 1   
    75    36    37 ar  
    76    37    38 ar  
    77    37    71 1   
    78    38    72 1   
@<TRIPOS>SUBSTRUCTURE
     1 188         1 TEMP              0 ****  ****    0 ROOT
