@<TRIPOS>MOLECULE
URE
  110   114     1     0     0
SMALL
bcc


@<TRIPOS>ATOM
      1 O           -2.4680     0.8280     0.7120 O           0 URE      -0.816800
      2 C           -2.9070     1.3340     1.7300 C           0 URE       0.902100
      3 O1          -2.9150     2.5470     1.8540 O           0 URE      -0.816800
      4 C1          -3.4470     0.4610     2.8330 C          0 URE      -0.005800
      5 C2          -2.3200     0.1050     3.8040 C          0 URE       0.011200
      6 S           -0.7370     0.1640     2.9190 S          0 URE      -0.282350
      7 S1           0.4490     0.9290     4.4080 S          0 URE      -0.282350
      8 C3           1.4070     2.1260     3.4450 C          0 URE       0.011200
      9 C4           2.6890     2.4750     4.2050 C          0 URE      -0.005800
     10 N            3.7810     2.5820     3.2330 N           0 URE      -0.517650
     11 C5           3.6530     3.4180     2.1940 C           0 URE       0.669200
     12 O2           2.9380     4.3960     2.2960 O           0 URE      -0.640850
     13 C6           4.3680     3.1680     0.9280 C          0 URE      -0.153850
     14 C7           5.3950     2.2340     0.8570 C          0 URE      -0.041750
     15 C8           6.0280     1.9730    -0.3550 C          0 URE      -0.158100
     16 C9           5.6860     2.7000    -1.4950 C          0 URE      -0.041750
     17 C10          4.6130     3.5770    -1.4380 C          0 URE      -0.153850
     18 C11          3.9720     3.8380    -0.2250 C          0 URE      -0.050000
     19 C12          4.0400     4.1770    -2.6530 C           0 URE       0.669200
     20 O3           4.7700     4.4150    -3.5950 O           0 URE      -0.640850
     21 N1           2.7450     4.4660    -2.7490 N           0 URE      -0.517650
     22 C13          1.8300     3.7470    -3.6280 C          0 URE      -0.005800
     23 C14          1.8290     2.2690    -3.2120 C          0 URE       0.011200
     24 S2           0.2890     1.4870    -3.7620 S          0 URE      -0.282350
     25 S3          -1.0530     2.4310    -2.5250 S          0 URE      -0.282350
     26 C15         -2.5980     2.1030    -3.4120 C          0 URE       0.011200
     27 C16         -3.6370     3.1580    -3.0220 C          0 URE      -0.005800
     28 N2          -4.3770     2.6870    -1.8450 N           0 URE      -0.517650
     29 C17         -5.1660     1.6010    -1.9610 C           0 URE       0.669200
     30 O4          -5.4570     1.1830    -3.0650 O           0 URE      -0.640850
     31 C18         -5.6800     0.9150    -0.7570 C          0 URE      -0.153850
     32 C19         -5.5220     1.4800     0.5050 C          0 URE      -0.050000
     33 C20         -5.9580     0.8040     1.6330 C          0 URE      -0.153850
     34 C21         -6.5860    -0.4410     1.4970 C          0 URE      -0.041750
     35 C22         -6.7230    -1.0330     0.2580 C          0 URE      -0.158100
     36 C23         -6.3040    -0.3220    -0.8750 C          0 URE      -0.041750
     37 C24         -7.1920    -2.4130     0.0600 C           0 URE       0.672700
     38 O5          -8.3790    -2.6110    -0.1110 O           0 URE      -0.672100
     39 N3          -6.3530    -3.4620     0.0600 N           0 URE      -0.512400
     40 C25         -4.9400    -3.2630     0.4010 C          0 URE      -0.027800
     41 C26         -4.0430    -3.6560    -0.7690 C          0 URE       0.036700
     42 S4          -2.3960    -4.0920    -0.1350 S          0 URE      -0.245600
     43 S5          -1.6590    -5.1490    -1.7330 S          0 URE      -0.158900
     44 C27         -0.0280    -5.4990    -1.1570 C          0 URE      -0.002600
     45 C28          0.5100    -6.7640    -1.3440 C          0 URE      -0.088500
     46 C29          1.7970    -7.0470    -0.8850 C          0 URE      -0.129600
     47 C30          2.5410    -6.0550    -0.2460 C          0 URE      -0.088500
     48 C31          1.9980    -4.7860    -0.0740 C          0 URE      -0.002600
     49 S6           2.9330    -3.5310     0.7220 S          0 URE      -0.158900
     50 S7           4.4090    -3.2290    -0.6710 S          0 URE      -0.245600
     51 C32          4.9660    -1.5820    -0.1780 C          0 URE       0.036700
     52 C33          6.4970    -1.5460    -0.0940 C          0 URE      -0.027800
     53 N4           6.9110    -0.2130     0.3360 N           0 URE      -0.512400
     54 C34          6.9400     0.8260    -0.4730 C           0 URE       0.672700
     55 O6           7.7660     0.8380    -1.3650 O           0 URE      -0.672100
     56 C35          6.9730    -2.5690     0.9040 C           0 URE       0.907600
     57 O7           7.2240    -3.7050     0.5400 O           0 URE      -0.831800
     58 O8           7.1070    -2.2620     2.0770 O           0 URE      -0.831800
     59 C36          0.7170    -4.5130    -0.5280 C          0 URE      -0.107000
     60 C37          2.3710    -8.3940    -1.0760 C           0 URE       0.909200
     61 O9           1.7180    -9.2630    -1.6360 O           0 URE      -0.859300
     62 O10          3.4990    -8.6400    -0.6730 O           0 URE      -0.859300
     63 C38         -4.7100    -1.8120     0.7380 C           0 URE       0.907600
     64 O11         -4.9060    -1.4120     1.8730 O           0 URE      -0.831800
     65 O12         -4.3270    -1.0400    -0.1230 O           0 URE      -0.831800
     66 C39         -5.6970     1.3240     2.9900 C           0 URE       0.669200
     67 O13         -6.5920     1.8860     3.5920 O           0 URE      -0.640850
     68 N5          -4.5000     1.1920     3.5760 N           0 URE      -0.517650
     69 C40         -2.9410     4.4540    -2.6940 C           0 URE       0.902100
     70 O14         -2.7360     5.2760    -3.5720 O           0 URE      -0.816800
     71 O15         -2.5810     4.6810    -1.5520 O           0 URE      -0.816800
     72 C41          0.4420     4.3150    -3.4920 C           0 URE       0.902100
     73 O16         -0.3560     4.2030    -4.4070 O           0 URE      -0.816800
     74 O17          0.1150     4.8880    -2.4660 O           0 URE      -0.816800
     75 C42          2.5150     3.7900     4.9210 C           0 URE       0.902100
     76 O18          2.0800     3.8100     6.0600 O           0 URE      -0.816800
     77 O19          2.8090     4.8320     4.3620 O           0 URE      -0.816800
     78 H           -3.8640    -0.4520     2.4070 H          0 URE       0.082450
     79 H1          -2.3060     0.8220     4.6250 H          0 URE       0.072450
     80 H2          -2.4810    -0.8980     4.1980 H          0 URE       0.072450
     81 H3           1.6640     1.6930     2.4780 H          0 URE       0.072450
     82 H4           0.8160     3.0290     3.2950 H          0 URE       0.072450
     83 H5           2.9150     1.6890     4.9270 H          0 URE       0.082450
     84 H6           4.5880     2.0540     3.3410 H          0 URE       0.310750
     85 H7           5.7040     1.7070     1.7480 H          0 URE       0.169250
     86 H8           6.2480     2.5820    -2.4100 H          0 URE       0.169250
     87 H9           3.1700     4.5590    -0.1820 H          0 URE       0.171500
     88 H10          2.3930     5.1900    -2.2080 H          0 URE       0.310750
     89 H11          2.1660     3.8370    -4.6610 H          0 URE       0.082450
     90 H12          2.6780     1.7620    -3.6700 H          0 URE       0.072450
     91 H13          1.9050     2.1970    -2.1270 H          0 URE       0.072450
     92 H14         -2.4180     2.1490    -4.4860 H          0 URE       0.072450
     93 H15         -2.9670     1.1120    -3.1460 H          0 URE       0.072450
     94 H16         -4.3280     3.3130    -3.8500 H          0 URE       0.082450
     95 H17         -4.2990     3.1500    -0.9960 H          0 URE       0.310750
     96 H18         -5.0560     2.4490     0.6050 H          0 URE       0.171500
     97 H19         -6.9670    -0.9450     2.3730 H          0 URE       0.169250
     98 H20         -6.4680    -0.7410    -1.8570 H          0 URE       0.169250
     99 H21         -6.6800    -4.3470    -0.1630 H          0 URE       0.305500
    100 H22         -4.6900    -3.8760     1.2670 H          0 URE       0.078700
    101 H23         -4.4730    -4.5130    -1.2860 H          0 URE       0.084450
    102 H24         -3.9570    -2.8170    -1.4600 H          0 URE       0.084450
    103 H25         -0.0660    -7.5290    -1.8430 H          0 URE       0.152000
    104 H26          3.5350    -6.2720     0.1140 H          0 URE       0.152000
    105 H27          4.6270    -0.8510    -0.9120 H          0 URE       0.084450
    106 H28          4.5450    -1.3340     0.7970 H          0 URE       0.084450
    107 H29          6.9220    -1.7620    -1.0740 H          0 URE       0.078700
    108 H30          7.1760    -0.0870     1.2610 H          0 URE       0.305500
    109 H31          0.2960    -3.5280    -0.3910 H          0 URE       0.159000
    110 H32         -4.3290     1.5620     4.4560 H          0 URE       0.310750
@<TRIPOS>BOND
     1     1     2 1   
     2     2     3 1   
     3     2     4 1   
     4     4     5 1   
     5     4    68 1   
     6     4    78 1   
     7     5     6 1   
     8     5    79 1   
     9     5    80 1   
    10     6     7 1   
    11     7     8 1   
    12     8     9 1   
    13     8    81 1   
    14     8    82 1   
    15     9    10 1   
    16     9    75 1   
    17     9    83 1   
    18    10    11 1   
    19    10    84 1   
    20    11    12 2   
    21    11    13 1   
    22    13    14 ar  
    23    13    18 ar  
    24    14    15 ar  
    25    14    85 1   
    26    15    16 ar  
    27    15    54 1   
    28    16    17 ar  
    29    16    86 1   
    30    17    18 ar  
    31    17    19 1   
    32    18    87 1   
    33    19    20 2   
    34    19    21 1   
    35    21    22 1   
    36    21    88 1   
    37    22    23 1   
    38    22    72 1   
    39    22    89 1   
    40    23    24 1   
    41    23    90 1   
    42    23    91 1   
    43    24    25 1   
    44    25    26 1   
    45    26    27 1   
    46    26    92 1   
    47    26    93 1   
    48    27    28 1   
    49    27    69 1   
    50    27    94 1   
    51    28    29 1   
    52    28    95 1   
    53    29    30 2   
    54    29    31 1   
    55    31    32 ar  
    56    31    36 ar  
    57    32    33 ar  
    58    32    96 1   
    59    33    34 ar  
    60    33    66 1   
    61    34    35 ar  
    62    34    97 1   
    63    35    36 ar  
    64    35    37 1   
    65    36    98 1   
    66    37    38 2   
    67    37    39 1   
    68    39    40 1   
    69    39    99 1   
    70    40    41 1   
    71    40    63 1   
    72    40   100 1   
    73    41    42 1   
    74    41   101 1   
    75    41   102 1   
    76    42    43 1   
    77    43    44 1   
    78    44    45 ar  
    79    44    59 ar  
    80    45    46 ar  
    81    45   103 1   
    82    46    47 ar  
    83    46    60 1   
    84    47    48 ar  
    85    47   104 1   
    86    48    49 1   
    87    48    59 ar  
    88    49    50 1   
    89    50    51 1   
    90    51    52 1   
    91    51   105 1   
    92    51   106 1   
    93    52    53 1   
    94    52    56 1   
    95    52   107 1   
    96    53    54 1   
    97    53   108 1   
    98    54    55 2   
    99    56    57 1   
   100    56    58 1   
   101    59   109 1   
   102    60    61 1   
   103    60    62 1   
   104    63    64 1   
   105    63    65 1   
   106    66    67 2   
   107    66    68 1   
   108    68   110 1   
   109    69    70 1   
   110    69    71 1   
   111    72    73 1   
   112    72    74 1   
   113    75    76 1   
   114    75    77 1   
@<TRIPOS>SUBSTRUCTURE
     1 URE         1 TEMP              0 ****  ****    0 ROOT
