@<TRIPOS>MOLECULE
62
  248   262     1     0     0
SMALL
bcc


@<TRIPOS>ATOM
      1 C           12.5640    -2.7390     4.4330 C          0 62       -0.091600
      2 C1          11.0440    -2.7350     4.6070 C          0 62       -0.020350
      3 C2          10.3880    -2.4180     3.2880 C          0 62       -0.110300
      4 C3           9.9210    -3.3260     2.3820 C          0 62       -0.087800
      5 C4           9.9250    -4.8230     2.5530 C          0 62       -0.027100
      6 C5           8.6070    -5.2670     3.1910 C          0 62       -0.089850
      7 C6           9.4410    -2.6350     1.2760 C          0 62        0.004150
      8 C7           8.8600    -3.1210     0.1030 C          0 62        0.012100
      9 C8           9.3900    -2.6570    -1.1260 C          0 62        0.142850
     10 N            9.6960    -1.3940    -1.3990 N          0 62       -0.620800
     11 C9          10.2310    -1.3120    -2.6260 C          0 62        0.449900
     12 C10         10.6030    -0.1200    -3.2700 C          0 62       -0.186350
     13 C11         10.2620     1.0870    -2.6650 C          0 62        0.102750
     14 C12         10.4730     2.3690    -3.1900 C          0 62       -0.107200
     15 C13         11.1470     2.6910    -4.4990 C          0 62       -0.023450
     16 C14         10.1010     2.7350    -5.6140 C          0 62       -0.091600
     17 C15          9.9590     3.2750    -2.3050 C          0 62       -0.084700
     18 C16          9.9380     4.7710    -2.4830 C          0 62       -0.030200
     19 C17          8.6450     5.1820    -3.1910 C          0 62       -0.089850
     20 C18          9.4580     2.5740    -1.2090 C          0 62        0.122250
     21 N1           9.6620     1.2270    -1.4310 N          0 62       -0.546050
     22 C19          8.8470     3.0970    -0.0710 C          0 62       -0.086300
     23 C20          9.2750     2.6200     1.1960 C          0 62        0.463150
     24 N2           9.7500     1.3980     1.4310 N          0 62       -0.620800
     25 C21         10.0230     1.2660     2.7370 C          0 62        0.129600
     26 C22         10.3930     0.0840     3.3990 C          0 62       -0.087950
     27 C23         10.1440    -1.1390     2.7740 C          0 62       -0.015350
     28 N3           9.6120    -1.2790     1.5110 N          0 62       -0.178350
     29 C24          9.8070     2.5740     3.3630 C          0 62       -0.122200
     30 C25         10.0670     2.9430     4.8000 C          0 62       -0.025450
     31 C26          8.8520     2.5670     5.6510 C          0 62       -0.090350
     32 C27          9.3260     3.3840     2.3880 C          0 62       -0.181050
     33 C28          8.9220     4.8270     2.5430 C          0 62       -0.031950
     34 C29         10.0780     5.7300     2.1090 C          0 62       -0.088100
     35 C30          7.7340     4.0680    -0.1170 C          0 62       -0.014050
     36 C31          6.4360     3.6670    -0.4110 C          0 62       -0.180750
     37 C32          5.4050     4.5980    -0.4250 C          0 62        0.115350
     38 O            4.1450     4.1910    -0.7220 O          0 62       -0.335150
     39 C33          3.2190     5.0010     0.0090 C          0 62        0.129150
     40 C34          1.8450     4.9770    -0.6720 C          0 62       -0.102650
     41 C35          0.7480     4.9850     0.3840 C          0 62       -0.077400
     42 C36         -0.6250     5.0770    -0.2800 C          0 62       -0.077400
     43 C37         -1.7190     4.6890     0.7170 C          0 62       -0.102650
     44 C38         -3.1040     4.9020     0.0860 C          0 62        0.129150
     45 O1          -4.0330     3.9780     0.6370 O          0 62       -0.335150
     46 C39         -5.2950     4.4420     0.4380 C          0 62        0.115350
     47 C40         -6.3440     3.5360     0.3820 C          0 62       -0.180750
     48 C41         -7.6450     3.9860     0.1800 C          0 62       -0.014050
     49 C42         -7.8900     5.3650     0.0670 C          0 62       -0.144250
     50 C43         -6.8370     6.2520     0.1220 C          0 62       -0.109250
     51 C44         -5.5410     5.7990     0.2970 C          0 62       -0.151000
     52 C45         -8.7580     3.0470     0.0550 C          0 62       -0.086300
     53 C46         -9.2920     2.6250    -1.1820 C          0 62        0.463150
     54 N4          -9.6540     1.3770    -1.4780 N          0 62       -0.620800
     55 C47        -10.0000     1.3090    -2.7730 C          0 62        0.129600
     56 C48        -10.2200     0.1300    -3.5000 C          0 62       -0.087950
     57 C49         -9.9210    -1.0920    -2.8830 C          0 62       -0.015350
     58 N5          -9.5160    -1.2340    -1.5720 N          0 62       -0.178350
     59 C50         -9.2400    -2.5640    -1.3520 C          0 62        0.004150
     60 C51         -9.4910    -3.2560    -2.5480 C          0 62       -0.087800
     61 C52         -9.3070    -4.7360    -2.7690 C          0 62       -0.027100
     62 C53         -7.8500    -5.0180    -3.1440 C          0 62       -0.089850
     63 C54         -9.9320    -2.3590    -3.4740 C          0 62       -0.110300
     64 C55        -10.3550    -2.6760    -4.8860 C          0 62       -0.020350
     65 C56        -11.8730    -2.8600    -4.9340 C          0 62       -0.091600
     66 C57         -8.8660    -3.1270    -0.1350 C          0 62        0.012100
     67 C58         -9.5230    -2.6730     1.0300 C          0 62        0.142850
     68 N6          -9.8720    -1.4130     1.2750 N          0 62       -0.620800
     69 C59        -10.4230    -1.3270     2.4940 C          0 62        0.449900
     70 C60        -10.7470    -0.1340     3.1680 C          0 62       -0.186350
     71 C61        -10.3260     1.0700     2.6090 C          0 62        0.102750
     72 C62        -10.4620     2.3480     3.1610 C          0 62       -0.107200
     73 C63        -11.1260     2.6810     4.4720 C          0 62       -0.023450
     74 C64        -10.0900     2.6330     5.5960 C          0 62       -0.091600
     75 C65         -9.8840     3.2420     2.3020 C          0 62       -0.084700
     76 C66         -9.7720     4.7290     2.5170 C          0 62       -0.030200
     77 C67         -8.4630     5.0420     3.2450 C          0 62       -0.089850
     78 C68         -9.4200     2.5410     1.1980 C          0 62        0.122250
     79 N7          -9.7000     1.2010     1.3830 N          0 62       -0.546050
     80 C69        -10.5710    -2.6910     3.0060 C          0 62       -0.208800
     81 C70        -11.2380    -3.1100     4.2910 C          0 62       -0.025450
     82 C71        -10.2350    -3.0090     5.4420 C          0 62       -0.090350
     83 C72         -9.9870    -3.5020     2.0880 C          0 62       -0.094450
     84 C73         -9.8550    -5.0000     2.1740 C          0 62       -0.031950
     85 C74        -10.9890    -5.6580     1.3850 C          0 62       -0.088100
     86 C75         -7.7710    -4.1120    -0.0130 C          0 62       -0.014050
     87 C76         -7.9780    -5.4840    -0.0190 C          0 62       -0.144250
     88 C77         -6.9180    -6.3510     0.0920 C          0 62       -0.109250
     89 C78         -5.6240    -5.8520     0.2250 C          0 62       -0.151000
     90 C79         -5.4060    -4.4830     0.2490 C          0 62        0.115350
     91 O2          -4.1570    -3.9840     0.4120 O          0 62       -0.335150
     92 C80         -3.2050    -4.9210    -0.0850 C          0 62        0.129150
     93 C81         -1.8670    -4.7530     0.6490 C          0 62       -0.102650
     94 C82         -0.7200    -4.7940    -0.3560 C          0 62       -0.077400
     95 C83          0.6240    -4.8620     0.3690 C          0 62       -0.077400
     96 C84          1.7520    -4.4120    -0.5620 C          0 62       -0.102650
     97 C85          3.1100    -4.6800     0.0940 C          0 62        0.129150
     98 O3           4.1110    -3.8520    -0.4800 O          0 62       -0.335150
     99 C86          5.3390    -4.3560    -0.1620 C          0 62        0.115350
    100 C87          5.4800    -5.6830     0.2040 C          0 62       -0.151000
    101 C88          6.7250    -6.1930     0.5170 C          0 62       -0.109250
    102 C89          7.8330    -5.3760     0.4790 C          0 62       -0.144250
    103 C90          7.7120    -4.0410     0.1140 C          0 62       -0.014050
    104 C91          6.4460    -3.5260    -0.2220 C          0 62       -0.180750
    105 C92         -6.4680    -3.6040     0.1230 C          0 62       -0.180750
    106 C93        -10.0560     2.6820    -3.2810 C          0 62       -0.122200
    107 C94        -10.5290     3.1260    -4.6410 C          0 62       -0.025450
    108 C95         -9.3750     3.0240    -5.6410 C          0 62       -0.090350
    109 C96         -9.5970     3.4720    -2.2800 C          0 62       -0.181050
    110 C97         -9.4400     4.9700    -2.3250 C          0 62       -0.031950
    111 C98        -10.6730     5.6310    -1.7050 C          0 62       -0.088100
    112 C99          5.6750     5.9310    -0.1570 C          0 62       -0.151000
    113 C100         6.9710     6.3360     0.1080 C          0 62       -0.109250
    114 C101         7.9990     5.4270     0.1290 C          0 62       -0.144250
    115 C102        10.3080    -2.6720    -3.1610 C          0 62       -0.208800
    116 C103        10.8820    -3.0910    -4.4900 C          0 62       -0.025450
    117 C104         9.8140    -2.9460    -5.5760 C          0 62       -0.090350
    118 C105         9.7580    -3.4800    -2.2190 C          0 62       -0.094450
    119 C106         9.5730    -4.9730    -2.3170 C          0 62       -0.031950
    120 C107        10.7560    -5.6780    -1.6490 C          0 62       -0.088100
    121 H           13.0380    -2.9690     5.3880 H          0 62        0.037367
    122 H1          12.8430    -3.4940     3.6980 H          0 62        0.037367
    123 H2          12.8930    -1.7580     4.0910 H          0 62        0.037367
    124 H3          10.7140    -3.7160     4.9500 H          0 62        0.050325
    125 H4          10.7640    -1.9810     5.3420 H          0 62        0.050325
    126 H5          10.0360    -5.3000     1.5790 H          0 62        0.055825
    127 H6          10.7550    -5.1130     3.1970 H          0 62        0.055825
    128 H7           8.5790    -6.3550     3.2490 H          0 62        0.036450
    129 H8           8.5290    -4.8470     4.1940 H          0 62        0.036450
    130 H9           7.7730    -4.9140     2.5840 H          0 62        0.036450
    131 H10         11.1380    -0.1390    -4.2090 H          0 62        0.147500
    132 H11         11.6400     3.6610    -4.4250 H          0 62        0.050325
    133 H12         11.8880     1.9240    -4.7250 H          0 62        0.050325
    134 H13         10.5880     2.9680    -6.5610 H          0 62        0.037367
    135 H14          9.6080     1.7650    -5.6880 H          0 62        0.037367
    136 H15          9.3610     3.5020    -5.3880 H          0 62        0.037367
    137 H16          9.9860     5.2540    -1.5070 H          0 62        0.055825
    138 H17         10.7940     5.0780    -3.0830 H          0 62        0.055825
    139 H18          8.6300     6.2640    -3.3200 H          0 62        0.036450
    140 H19          8.5970     4.6990    -4.1670 H          0 62        0.036450
    141 H20          7.7890     4.8750    -2.5910 H          0 62        0.036450
    142 H21          9.4250     0.5060    -0.8270 H          0 62        0.488800
    143 H22         10.8570     0.1200     4.3740 H          0 62        0.147500
    144 H23          9.4020    -0.5600     0.8950 H          0 62        0.333700
    145 H24         10.9440     2.4060     5.1610 H          0 62        0.049325
    146 H25         10.2430     4.0170     4.8740 H          0 62        0.049325
    147 H26          9.0400     2.8340     6.6910 H          0 62        0.036783
    148 H27          7.9750     3.1040     5.2910 H          0 62        0.036783
    149 H28          8.6760     1.4930     5.5780 H          0 62        0.036783
    150 H29          8.0500     5.0290     1.9210 H          0 62        0.053200
    151 H30          8.6780     5.0260     3.5870 H          0 62        0.053200
    152 H31          9.7220     6.7560     2.0160 H          0 62        0.036533
    153 H32         10.8730     5.6870     2.8530 H          0 62        0.036533
    154 H33         10.4620     5.3910     1.1470 H          0 62        0.036533
    155 H34          6.2290     2.6300    -0.6290 H          0 62        0.148500
    156 H35          3.1270     4.6160     1.0240 H          0 62        0.048200
    157 H36          3.5870     6.0270     0.0450 H          0 62        0.048200
    158 H37          1.7410     5.8540    -1.3100 H          0 62        0.057200
    159 H38          1.7570     4.0760    -1.2790 H          0 62        0.057200
    160 H39          0.8050     4.0680     0.9710 H          0 62        0.043950
    161 H40          0.8890     5.8420     1.0440 H          0 62        0.043950
    162 H41         -0.7940     6.0990    -0.6220 H          0 62        0.043950
    163 H42         -0.6590     4.4020    -1.1350 H          0 62        0.043950
    164 H43         -1.6030     3.6400     0.9900 H          0 62        0.057200
    165 H44         -1.6290     5.3060     1.6110 H          0 62        0.057200
    166 H45         -3.4410     5.9190     0.2870 H          0 62        0.048200
    167 H46         -3.0380     4.7500    -0.9920 H          0 62        0.048200
    168 H47         -6.1510     2.4800     0.4970 H          0 62        0.148500
    169 H48         -8.8990     5.7280    -0.0620 H          0 62        0.144000
    170 H49         -7.0250     7.3110     0.0260 H          0 62        0.136250
    171 H50         -4.7220     6.5020     0.3250 H          0 62        0.149000
    172 H51        -10.6080     0.1630    -4.5070 H          0 62        0.147500
    173 H52         -9.4400    -0.5210    -0.9190 H          0 62        0.333700
    174 H53         -9.5570    -5.2730    -1.8540 H          0 62        0.055825
    175 H54         -9.9600    -5.0670    -3.5750 H          0 62        0.055825
    176 H55         -7.7170    -6.0880    -3.3030 H          0 62        0.036450
    177 H56         -7.6000    -4.4800    -4.0590 H          0 62        0.036450
    178 H57         -7.1960    -4.6860    -2.3370 H          0 62        0.036450
    179 H58        -10.0670    -1.8550    -5.5440 H          0 62        0.050325
    180 H59         -9.8660    -3.5930    -5.2140 H          0 62        0.050325
    181 H60        -12.1780    -3.0900    -5.9550 H          0 62        0.037367
    182 H61        -12.1600    -3.6810    -4.2760 H          0 62        0.037367
    183 H62        -12.3610    -1.9430    -4.6060 H          0 62        0.037367
    184 H63        -11.3060    -0.1520     4.0920 H          0 62        0.147500
    185 H64        -11.5570     3.6810     4.4170 H          0 62        0.050325
    186 H65        -11.9150     1.9570     4.6740 H          0 62        0.050325
    187 H66        -10.5700     2.8740     6.5440 H          0 62        0.037367
    188 H67         -9.6590     1.6340     5.6510 H          0 62        0.037367
    189 H68         -9.3010     3.3580     5.3940 H          0 62        0.037367
    190 H69         -9.7810     5.2370     1.5520 H          0 62        0.055825
    191 H70        -10.6130     5.0740     3.1180 H          0 62        0.055825
    192 H71         -8.3820     6.1170     3.4000 H          0 62        0.036450
    193 H72         -8.4530     4.5340     4.2090 H          0 62        0.036450
    194 H73         -7.6220     4.6970     2.6440 H          0 62        0.036450
    195 H74         -9.4940     0.4820     0.7650 H          0 62        0.488800
    196 H75        -12.0870    -2.4560     4.4890 H          0 62        0.049325
    197 H76        -11.5860    -4.1390     4.2010 H          0 62        0.049325
    198 H77        -10.7180    -3.3120     6.3710 H          0 62        0.036783
    199 H78         -9.3870    -3.6630     5.2430 H          0 62        0.036783
    200 H79         -9.8880    -1.9800     5.5320 H          0 62        0.036783
    201 H80         -8.8960    -5.3050     1.7540 H          0 62        0.053200
    202 H81         -9.9100    -5.3110     3.2170 H          0 62        0.053200
    203 H82        -10.8930    -6.7420     1.4470 H          0 62        0.036533
    204 H83        -11.9470    -5.3530     1.8040 H          0 62        0.036533
    205 H84        -10.9330    -5.3480     0.3420 H          0 62        0.036533
    206 H85         -8.9810    -5.8740    -0.1110 H          0 62        0.144000
    207 H86         -7.0880    -7.4170     0.0760 H          0 62        0.136250
    208 H87         -4.7900    -6.5320     0.3090 H          0 62        0.149000
    209 H88         -3.5780    -5.9330     0.0710 H          0 62        0.048200
    210 H89         -3.0550    -4.7530    -1.1520 H          0 62        0.048200
    211 H90         -1.8570    -3.7960     1.1710 H          0 62        0.057200
    212 H91         -1.7460    -5.5600     1.3710 H          0 62        0.057200
    213 H92         -0.8310    -5.6710    -0.9940 H          0 62        0.043950
    214 H93         -0.7510    -3.8970    -0.9750 H          0 62        0.043950
    215 H94          0.5950    -4.2120     1.2430 H          0 62        0.043950
    216 H95          0.8080    -5.8870     0.6900 H          0 62        0.043950
    217 H96          1.6890    -4.9620    -1.5010 H          0 62        0.057200
    218 H97          1.6510    -3.3450    -0.7620 H          0 62        0.057200
    219 H98          3.0410    -4.4740     1.1620 H          0 62        0.048200
    220 H99          3.3800    -5.7260    -0.0520 H          0 62        0.048200
    221 H100         4.6120    -6.3240     0.2450 H          0 62        0.149000
    222 H101         6.8290    -7.2320     0.7910 H          0 62        0.136250
    223 H102         8.8030    -5.7760     0.7350 H          0 62        0.144000
    224 H103         6.3390    -2.4950    -0.5240 H          0 62        0.148500
    225 H104        -6.2960    -2.5380     0.1300 H          0 62        0.148500
    226 H105       -11.3490     2.4860    -4.9680 H          0 62        0.049325
    227 H106       -10.8720     4.1590    -4.5870 H          0 62        0.049325
    228 H107        -9.7160     3.3450    -6.6250 H          0 62        0.036783
    229 H108        -8.5540     3.6630    -5.3140 H          0 62        0.036783
    230 H109        -9.0310     1.9910    -5.6950 H          0 62        0.036783
    231 H110        -8.5520     5.2590    -1.7630 H          0 62        0.053200
    232 H111        -9.3360     5.2940    -3.3610 H          0 62        0.053200
    233 H112       -10.5590     6.7140    -1.7370 H          0 62        0.036533
    234 H113       -11.5610     5.3420    -2.2670 H          0 62        0.036533
    235 H114       -10.7760     5.3070    -0.6690 H          0 62        0.036533
    236 H115         4.8730     6.6540    -0.1560 H          0 62        0.149000
    237 H116         7.1760     7.3790     0.3010 H          0 62        0.136250
    238 H117         9.0080     5.7550     0.3330 H          0 62        0.144000
    239 H118        11.7350    -2.4580    -4.7330 H          0 62        0.049325
    240 H119        11.2050    -4.1300    -4.4350 H          0 62        0.049325
    241 H120        10.2290    -3.2480    -6.5370 H          0 62        0.036783
    242 H121         8.9610    -3.5790    -5.3330 H          0 62        0.036783
    243 H122         9.4910    -1.9060    -5.6310 H          0 62        0.036783
    244 H123         8.6490    -5.2590    -1.8150 H          0 62        0.053200
    245 H124         9.5220    -5.2640    -3.3660 H          0 62        0.053200
    246 H125        10.6220    -6.7570    -1.7200 H          0 62        0.036533
    247 H126        11.6800    -5.3920    -2.1510 H          0 62        0.036533
    248 H127        10.8070    -5.3860    -0.6000 H          0 62        0.036533
@<TRIPOS>BOND
     1     1     2 1   
     2     1   121 1   
     3     1   122 1   
     4     1   123 1   
     5     2     3 1   
     6     2   124 1   
     7     2   125 1   
     8     3     4 1   
     9     3    27 2   
    10     4     5 1   
    11     4     7 2   
    12     5     6 1   
    13     5   126 1   
    14     5   127 1   
    15     6   128 1   
    16     6   129 1   
    17     6   130 1   
    18     7     8 1   
    19     7    28 1   
    20     8     9 2   
    21     8   103 1   
    22     9    10 1   
    23     9   118 1   
    24    10    11 2   
    25    11    12 1   
    26    11   115 1   
    27    12    13 2   
    28    12   131 1   
    29    13    14 1   
    30    13    21 1   
    31    14    15 1   
    32    14    17 2   
    33    15    16 1   
    34    15   132 1   
    35    15   133 1   
    36    16   134 1   
    37    16   135 1   
    38    16   136 1   
    39    17    18 1   
    40    17    20 1   
    41    18    19 1   
    42    18   137 1   
    43    18   138 1   
    44    19   139 1   
    45    19   140 1   
    46    19   141 1   
    47    20    21 1   
    48    20    22 2   
    49    21   142 1   
    50    22    23 1   
    51    22    35 1   
    52    23    24 2   
    53    23    32 1   
    54    24    25 1   
    55    25    26 2   
    56    25    29 1   
    57    26    27 1   
    58    26   143 1   
    59    27    28 1   
    60    28   144 1   
    61    29    30 1   
    62    29    32 2   
    63    30    31 1   
    64    30   145 1   
    65    30   146 1   
    66    31   147 1   
    67    31   148 1   
    68    31   149 1   
    69    32    33 1   
    70    33    34 1   
    71    33   150 1   
    72    33   151 1   
    73    34   152 1   
    74    34   153 1   
    75    34   154 1   
    76    35    36 ar  
    77    35   114 ar  
    78    36    37 ar  
    79    36   155 1   
    80    37    38 1   
    81    37   112 ar  
    82    38    39 1   
    83    39    40 1   
    84    39   156 1   
    85    39   157 1   
    86    40    41 1   
    87    40   158 1   
    88    40   159 1   
    89    41    42 1   
    90    41   160 1   
    91    41   161 1   
    92    42    43 1   
    93    42   162 1   
    94    42   163 1   
    95    43    44 1   
    96    43   164 1   
    97    43   165 1   
    98    44    45 1   
    99    44   166 1   
   100    44   167 1   
   101    45    46 1   
   102    46    47 ar  
   103    46    51 ar  
   104    47    48 ar  
   105    47   168 1   
   106    48    49 ar  
   107    48    52 1   
   108    49    50 ar  
   109    49   169 1   
   110    50    51 ar  
   111    50   170 1   
   112    51   171 1   
   113    52    53 1   
   114    52    78 2   
   115    53    54 2   
   116    53   109 1   
   117    54    55 1   
   118    55    56 2   
   119    55   106 1   
   120    56    57 1   
   121    56   172 1   
   122    57    58 1   
   123    57    63 2   
   124    58    59 1   
   125    58   173 1   
   126    59    60 2   
   127    59    66 1   
   128    60    61 1   
   129    60    63 1   
   130    61    62 1   
   131    61   174 1   
   132    61   175 1   
   133    62   176 1   
   134    62   177 1   
   135    62   178 1   
   136    63    64 1   
   137    64    65 1   
   138    64   179 1   
   139    64   180 1   
   140    65   181 1   
   141    65   182 1   
   142    65   183 1   
   143    66    67 2   
   144    66    86 1   
   145    67    68 1   
   146    67    83 1   
   147    68    69 2   
   148    69    70 1   
   149    69    80 1   
   150    70    71 2   
   151    70   184 1   
   152    71    72 1   
   153    71    79 1   
   154    72    73 1   
   155    72    75 2   
   156    73    74 1   
   157    73   185 1   
   158    73   186 1   
   159    74   187 1   
   160    74   188 1   
   161    74   189 1   
   162    75    76 1   
   163    75    78 1   
   164    76    77 1   
   165    76   190 1   
   166    76   191 1   
   167    77   192 1   
   168    77   193 1   
   169    77   194 1   
   170    78    79 1   
   171    79   195 1   
   172    80    81 1   
   173    80    83 2   
   174    81    82 1   
   175    81   196 1   
   176    81   197 1   
   177    82   198 1   
   178    82   199 1   
   179    82   200 1   
   180    83    84 1   
   181    84    85 1   
   182    84   201 1   
   183    84   202 1   
   184    85   203 1   
   185    85   204 1   
   186    85   205 1   
   187    86    87 ar  
   188    86   105 ar  
   189    87    88 ar  
   190    87   206 1   
   191    88    89 ar  
   192    88   207 1   
   193    89    90 ar  
   194    89   208 1   
   195    90    91 1   
   196    90   105 ar  
   197    91    92 1   
   198    92    93 1   
   199    92   209 1   
   200    92   210 1   
   201    93    94 1   
   202    93   211 1   
   203    93   212 1   
   204    94    95 1   
   205    94   213 1   
   206    94   214 1   
   207    95    96 1   
   208    95   215 1   
   209    95   216 1   
   210    96    97 1   
   211    96   217 1   
   212    96   218 1   
   213    97    98 1   
   214    97   219 1   
   215    97   220 1   
   216    98    99 1   
   217    99   100 ar  
   218    99   104 ar  
   219   100   101 ar  
   220   100   221 1   
   221   101   102 ar  
   222   101   222 1   
   223   102   103 ar  
   224   102   223 1   
   225   103   104 ar  
   226   104   224 1   
   227   105   225 1   
   228   106   107 1   
   229   106   109 2   
   230   107   108 1   
   231   107   226 1   
   232   107   227 1   
   233   108   228 1   
   234   108   229 1   
   235   108   230 1   
   236   109   110 1   
   237   110   111 1   
   238   110   231 1   
   239   110   232 1   
   240   111   233 1   
   241   111   234 1   
   242   111   235 1   
   243   112   113 ar  
   244   112   236 1   
   245   113   114 ar  
   246   113   237 1   
   247   114   238 1   
   248   115   116 1   
   249   115   118 2   
   250   116   117 1   
   251   116   239 1   
   252   116   240 1   
   253   117   241 1   
   254   117   242 1   
   255   117   243 1   
   256   118   119 1   
   257   119   120 1   
   258   119   244 1   
   259   119   245 1   
   260   120   246 1   
   261   120   247 1   
   262   120   248 1   
@<TRIPOS>SUBSTRUCTURE
     1 62          1 TEMP              0 ****  ****    0 ROOT
