@<TRIPOS>MOLECULE

  150   166     1     0     0
SMALL
bcc


@<TRIPOS>ATOM
      1 C1         -11.8490     1.8740    -1.1770 C          1 38          -0.104600
      2 C2         -10.8740     0.7000    -0.9330 C          1 38           0.235700
      3 C3         -11.3640    -0.5580    -1.6630 C          1 38          -0.104600
      4 C4          -9.5550     1.1570    -1.6320 C          1 38          -0.104600
      5 N1         -10.6680     0.4760     0.5440 N          1 38          -0.750300
      6 C5          -9.3760     0.1170     0.9150 C          1 38           0.923900
      7 N2          -8.6830     0.9830     1.6390 N          1 38          -0.756750
      8 C6          -7.4520     0.6540     1.9730 C          1 38           0.845400
      9 N3          -6.8280    -0.4530     1.5500 N          1 38          -0.772500
     10 C7          -7.6220    -1.3050     0.8870 C          1 38           0.845400
     11 N4          -8.8610    -1.0370     0.5170 N          1 38          -0.756750
     12 N5          -7.1510    -2.5690     0.4710 N          1 38          -0.487650
     13 N6          -5.6760    -2.8150     0.2470 N           1 38          -0.368800
     14 C8          -5.1920    -2.7670    -0.9990 C           1 38           0.725100
     15 O1          -6.1060    -2.5130    -2.0320 O           1 38          -0.575000
     16 C9          -3.8120    -2.8440    -1.2560 C          1 38          -0.138350
     17 C10         -3.2820    -2.7310    -2.5430 C          1 38          -0.042500
     18 C11         -1.9000    -2.7510    -2.7500 C          1 38          -0.129500
     19 C12         -0.9650    -2.8810    -1.6940 C          1 38           0.009375
     20 C13          0.4590    -2.8540    -1.8940 C          1 38           0.009375
     21 C14          1.0610    -2.7000    -3.1660 C          1 38          -0.129500
     22 C15          2.4450    -2.6290    -3.3490 C          1 38          -0.042500
     23 C16          3.3130    -2.7080    -2.2580 C          1 38          -0.138350
     24 C17          4.7080    -2.5830    -2.3920 C           1 38           0.725100
     25 O2           5.2920    -2.3170    -3.6390 O           1 38          -0.575000
     26 N7           5.5180    -2.5960    -1.3270 N           1 38          -0.368800
     27 N8           6.9900    -2.3260    -1.5240 N          1 38          -0.487650
     28 C18          7.5620    -1.0720    -1.2280 C          1 38           0.845400
     29 N9           8.6450    -0.7960    -1.9270 N          1 38          -0.756750
     30 C19          9.2680     0.3440    -1.6670 C          1 38           0.923900
     31 N10         10.4250     0.6200    -2.3850 N          1 38          -0.750300
     32 C20         11.7050     0.5010    -1.5930 C          1 38           0.235700
     33 C21         12.8180    -0.1410    -2.4500 C          1 38          -0.104600
     34 C22         11.5510    -0.4720    -0.3820 C          1 38          -0.104600
     35 C23         12.1770     1.8480    -1.0280 C          1 38          -0.104600
     36 C24         10.2100     1.5610    -3.5440 C          1 38           0.235700
     37 C25          9.0940     0.9910    -4.4660 C          1 38          -0.104600
     38 C26          9.7720     2.9710    -3.0950 C          1 38          -0.104600
     39 C27         11.4390     1.7090    -4.4560 C          1 38          -0.104600
     40 N11          8.8370     1.1870    -0.7410 N          1 38          -0.756750
     41 C28          7.7420     0.8530    -0.0840 C          1 38           0.845400
     42 N12          7.0050    -0.2360    -0.3430 N          1 38          -0.772500
     43 N13          7.3540     1.7770     0.9100 N          1 38          -0.487650
     44 N14          5.9090     1.9080     1.3330 N           1 38          -0.368800
     45 C29          5.3700     1.0250     2.1820 C           1 38           0.725100
     46 O3           6.1670    -0.0100     2.6900 O           1 38          -0.575000
     47 C30          3.9950     1.0470     2.4790 C          1 38          -0.138350
     48 C31          3.4040     0.1050     3.3250 C          1 38          -0.042500
     49 C32          2.0270     0.1120     3.5490 C          1 38          -0.129500
     50 C33          1.1560     1.0490     2.9440 C          1 38           0.009375
     51 C34         -0.2690     1.0260     3.1270 C          1 38           0.009375
     52 C35         -0.9290     0.0610     3.9240 C          1 38          -0.129500
     53 C36         -2.3180     0.0120     4.0560 C          1 38          -0.042500
     54 C37         -3.1310     0.9380     3.3990 C          1 38          -0.138350
     55 C38         -4.5360     0.8770     3.4650 C           1 38           0.725100
     56 O4          -5.1440    -0.1910     4.1380 O           1 38          -0.575000
     57 N15         -5.3000     1.7520     2.8000 N           1 38          -0.368800
     58 N16         -6.8030     1.6040     2.7890 N          1 38          -0.487650
     59 C39         -4.7430     2.7650     2.1280 C           1 38           0.725100
     60 O5          -5.6070     3.6370     1.4510 O           1 38          -0.575000
     61 C40         -3.3470     2.8870     2.0010 C          1 38          -0.138350
     62 C41         -2.7480     3.8980     1.2470 C          1 38          -0.042500
     63 C42         -1.3600     3.9500     1.0990 C          1 38          -0.129500
     64 C43         -0.4860     3.0040     1.6880 C          1 38           0.009375
     65 C44          0.9400     3.0230     1.5010 C          1 38           0.009375
     66 C45          1.6050     3.9870     0.7050 C          1 38          -0.129500
     67 C46          2.9850     3.9730     0.4880 C          1 38          -0.042500
     68 C47          3.7870     2.9850     1.0640 C          1 38          -0.138350
     69 C48          5.1690     2.8980     0.8220 C           1 38           0.725100
     70 O6           5.8040     3.7780    -0.0660 O           1 38          -0.575000
     71 C49          3.1730     2.0260     1.8920 C          1 38           0.021000
     72 C50          1.7500     2.0350     2.1160 C          1 38          -0.032500
     73 C51         -1.0830     1.9940     2.4850 C          1 38          -0.032500
     74 C52         -2.5150     1.9440     2.6320 C          1 38           0.021000
     75 C53          5.0290    -2.8360    -0.1050 C           1 38           0.725100
     76 O7           5.8950    -2.8160     0.9960 O           1 38          -0.575000
     77 C54          3.6450    -2.9850     0.1110 C          1 38          -0.138350
     78 C55          3.1130    -3.1990     1.3840 C          1 38          -0.042500
     79 C56          1.7330    -3.2830     1.5760 C          1 38          -0.129500
     80 C57          0.8030    -3.1520     0.5190 C          1 38           0.009375
     81 C58         -0.6200    -3.1840     0.7180 C          1 38           0.009375
     82 C59         -1.2180    -3.3560     1.9890 C          1 38          -0.129500
     83 C60         -2.5990    -3.3330     2.1850 C          1 38          -0.042500
     84 C61         -3.4690    -3.1400     1.1090 C          1 38          -0.138350
     85 C62         -4.8630    -3.0460     1.2840 C           1 38           0.725100
     86 O8          -5.3980    -3.0780     2.5780 O           1 38          -0.575000
     87 C63         -2.9210    -3.0100    -0.1800 C          1 38           0.021000
     88 C64         -1.4960    -3.0290    -0.3870 C          1 38          -0.032500
     89 C65          1.3340    -2.9710    -0.7840 C          1 38          -0.032500
     90 C66          2.7590    -2.8940    -0.9780 C          1 38           0.021000
     91 C67        -11.7200    -0.0560     1.4910 C          1 38           0.235700
     92 C68        -11.4180     0.4420     2.9340 C          1 38          -0.104600
     93 C69        -11.7640    -1.5990     1.5240 C          1 38          -0.104600
     94 C70        -13.1400     0.4530     1.1900 C          1 38          -0.104600
     95 H1         -12.8970     1.5900    -1.0720 H          1 38           0.043617
     96 H2         -11.6450     2.7060    -0.4930 H          1 38           0.043617
     97 H3         -11.7640     2.2600    -2.2000 H          1 38           0.043617
     98 H4         -12.3620    -0.8630    -1.3440 H          1 38           0.043617
     99 H5         -11.4220    -0.3850    -2.7450 H          1 38           0.043617
    100 H6         -10.6890    -1.4050    -1.5040 H          1 38           0.043617
    101 H7          -9.1230     2.0330    -1.1360 H          1 38           0.043617
    102 H8          -9.7350     1.4300    -2.6800 H          1 38           0.043617
    103 H9          -8.7970     0.3670    -1.6560 H          1 38           0.043617
    104 H10         -7.7450    -2.8180    -0.3290 H          1 38           0.428550
    105 H11         -3.9330    -2.6180    -3.4150 H          1 38           0.172000
    106 H12         -1.5750    -2.6560    -3.7860 H          1 38           0.146625
    107 H13          0.4600    -2.6280    -4.0730 H          1 38           0.146625
    108 H14          2.8260    -2.5030    -4.3670 H          1 38           0.172000
    109 H15          7.3420    -2.5580    -2.4620 H          1 38           0.428550
    110 H16         13.2920     0.5640    -3.1350 H          1 38           0.043617
    111 H17         12.4310    -0.9830    -3.0350 H          1 38           0.043617
    112 H18         13.6360    -0.5220    -1.8260 H          1 38           0.043617
    113 H19         10.8640    -0.0880     0.3800 H          1 38           0.043617
    114 H20         12.5100    -0.6260     0.1270 H          1 38           0.043617
    115 H21         11.1920    -1.4570    -0.7040 H          1 38           0.043617
    116 H22         12.4660     2.5500    -1.8130 H          1 38           0.043617
    117 H23         11.3980     2.3230    -0.4220 H          1 38           0.043617
    118 H24         13.0570     1.7170    -0.3870 H          1 38           0.043617
    119 H25          9.3240    -0.0370    -4.7710 H          1 38           0.043617
    120 H26          8.9830     1.5920    -5.3770 H          1 38           0.043617
    121 H27          8.1140     0.9850    -3.9790 H          1 38           0.043617
    122 H28         10.4870     3.4310    -2.4100 H          1 38           0.043617
    123 H29          9.6760     3.6420    -3.9580 H          1 38           0.043617
    124 H30          8.7960     2.9640    -2.5990 H          1 38           0.043617
    125 H31         12.2630     2.2300    -3.9630 H          1 38           0.043617
    126 H32         11.7900     0.7380    -4.8190 H          1 38           0.043617
    127 H33         11.2000     2.3080    -5.3440 H          1 38           0.043617
    128 H34          7.7920     2.6630     0.6280 H          1 38           0.428550
    129 H35          4.0090    -0.6520     3.8330 H          1 38           0.172000
    130 H36          1.6550    -0.6510     4.2320 H          1 38           0.146625
    131 H37         -0.3740    -0.6920     4.4810 H          1 38           0.146625
    132 H38         -2.7500    -0.7640     4.6940 H          1 38           0.172000
    133 H39         -7.3130     2.4810     2.6220 H          1 38           0.428550
    134 H40         -3.3500     4.6660     0.7520 H          1 38           0.172000
    135 H41         -0.9790     4.7720     0.4930 H          1 38           0.146625
    136 H42          1.0580     4.7930     0.2160 H          1 38           0.146625
    137 H43          3.4170     4.7510    -0.1480 H          1 38           0.172000
    138 H44          3.7650    -3.3140     2.2550 H          1 38           0.172000
    139 H45          1.4080    -3.4640     2.6000 H          1 38           0.146625
    140 H46         -0.6160    -3.5230     2.8820 H          1 38           0.146625
    141 H47         -2.9820    -3.4750     3.1990 H          1 38           0.172000
    142 H48        -11.3030     1.5320     2.9570 H          1 38           0.043617
    143 H49        -12.2270     0.1760     3.6250 H          1 38           0.043617
    144 H50        -10.5050    -0.0030     3.3440 H          1 38           0.043617
    145 H51        -12.5680    -1.9520     2.1800 H          1 38           0.043617
    146 H52        -10.8360    -2.0300     1.9130 H          1 38           0.043617
    147 H53        -11.9400    -2.0300     0.5370 H          1 38           0.043617
    148 H54        -13.8470     0.1300     1.9650 H          1 38           0.043617
    149 H55        -13.1800     1.5470     1.1690 H          1 38           0.043617
    150 H56        -13.5330     0.0580     0.2510 H          1 38           0.043617
@<TRIPOS>BOND
     1     1     2 1   
     2     1    95 1   
     3     1    96 1   
     4     1    97 1   
     5     2     3 1   
     6     2     4 1   
     7     2     5 1   
     8     3    98 1   
     9     3    99 1   
    10     3   100 1   
    11     4   101 1   
    12     4   102 1   
    13     4   103 1   
    14     5     6 1   
    15     5    91 1   
    16     6     7 ar  
    17     6    11 ar  
    18     7     8 ar  
    19     8     9 ar  
    20     8    58 1   
    21     9    10 ar  
    22    10    11 ar  
    23    10    12 1   
    24    12    13 1   
    25    12   104 1   
    26    13    14 1   
    27    13    85 1   
    28    14    15 2   
    29    14    16 1   
    30    16    17 ar  
    31    16    87 ar  
    32    17    18 ar  
    33    17   105 1   
    34    18    19 ar  
    35    18   106 1   
    36    19    20 ar  
    37    19    88 ar  
    38    20    21 ar  
    39    20    89 ar  
    40    21    22 ar  
    41    21   107 1   
    42    22    23 ar  
    43    22   108 1   
    44    23    24 1   
    45    23    90 ar  
    46    24    25 2   
    47    24    26 1   
    48    26    27 1   
    49    26    75 1   
    50    27    28 1   
    51    27   109 1   
    52    28    29 ar  
    53    28    42 ar  
    54    29    30 ar  
    55    30    31 1   
    56    30    40 ar  
    57    31    32 1   
    58    31    36 1   
    59    32    33 1   
    60    32    34 1   
    61    32    35 1   
    62    33   110 1   
    63    33   111 1   
    64    33   112 1   
    65    34   113 1   
    66    34   114 1   
    67    34   115 1   
    68    35   116 1   
    69    35   117 1   
    70    35   118 1   
    71    36    37 1   
    72    36    38 1   
    73    36    39 1   
    74    37   119 1   
    75    37   120 1   
    76    37   121 1   
    77    38   122 1   
    78    38   123 1   
    79    38   124 1   
    80    39   125 1   
    81    39   126 1   
    82    39   127 1   
    83    40    41 ar  
    84    41    42 ar  
    85    41    43 1   
    86    43    44 1   
    87    43   128 1   
    88    44    45 1   
    89    44    69 1   
    90    45    46 2   
    91    45    47 1   
    92    47    48 ar  
    93    47    71 ar  
    94    48    49 ar  
    95    48   129 1   
    96    49    50 ar  
    97    49   130 1   
    98    50    51 ar  
    99    50    72 ar  
   100    51    52 ar  
   101    51    73 ar  
   102    52    53 ar  
   103    52   131 1   
   104    53    54 ar  
   105    53   132 1   
   106    54    55 1   
   107    54    74 ar  
   108    55    56 2   
   109    55    57 1   
   110    57    58 1   
   111    57    59 1   
   112    58   133 1   
   113    59    60 2   
   114    59    61 1   
   115    61    62 ar  
   116    61    74 ar  
   117    62    63 ar  
   118    62   134 1   
   119    63    64 ar  
   120    63   135 1   
   121    64    65 ar  
   122    64    73 ar  
   123    65    66 ar  
   124    65    72 ar  
   125    66    67 ar  
   126    66   136 1   
   127    67    68 ar  
   128    67   137 1   
   129    68    69 1   
   130    68    71 ar  
   131    69    70 2   
   132    71    72 ar  
   133    73    74 ar  
   134    75    76 2   
   135    75    77 1   
   136    77    78 ar  
   137    77    90 ar  
   138    78    79 ar  
   139    78   138 1   
   140    79    80 ar  
   141    79   139 1   
   142    80    81 ar  
   143    80    89 ar  
   144    81    82 ar  
   145    81    88 ar  
   146    82    83 ar  
   147    82   140 1   
   148    83    84 ar  
   149    83   141 1   
   150    84    85 1   
   151    84    87 ar  
   152    85    86 2   
   153    87    88 ar  
   154    89    90 ar  
   155    91    92 1   
   156    91    93 1   
   157    91    94 1   
   158    92   142 1   
   159    92   143 1   
   160    92   144 1   
   161    93   145 1   
   162    93   146 1   
   163    93   147 1   
   164    94   148 1   
   165    94   149 1   
   166    94   150 1   
@<TRIPOS>SUBSTRUCTURE
     1             1 TEMP              0 ****  ****    0 ROOT
