@<TRIPOS>MOLECULE
ASB
   96   100     1     0     0
SMALL
bcc


@<TRIPOS>ATOM
      1 C1           2.7870    -2.3900     2.7510 C          1 ASB       0.106700
      2 O1           1.5860    -2.3510     1.9770 O          1 ASB      -0.476100
      3 C2           0.4420    -2.4290     2.8400 C          1 ASB       0.169700
      4 C3          -0.7920    -2.4550     1.9730 C          1 ASB      -0.101300
      5 C4          -1.4110    -3.6690     1.6460 C          1 ASB      -0.095000
      6 C5          -2.5450    -3.7110     0.8140 C          1 ASB      -0.138050
      7 C6          -3.1390    -5.0560     0.4520 C          1 ASB       0.130050
      8 N1          -3.2650    -5.2940    -0.9810 N           1 ASB      -0.543150
      9 C7          -2.2890    -5.3350    -1.9410 C          1 ASB       0.661300
     10 O2          -2.5140    -5.6660    -3.0970 O           1 ASB      -0.558050
     11 C8          -0.9360    -4.8620    -1.6090 C          1 ASB       0.089750
     12 C9          -0.0550    -5.7580    -1.0100 C          1 ASB      -0.109250
     13 C10          1.1960    -5.3180    -0.6270 C          1 ASB      -0.012000
     14 C11          1.5200    -3.9820    -0.8200 C          1 ASB      -0.109250
     15 C12          0.6010    -3.0950    -1.4140 C          1 ASB       0.070550
     16 C13          0.9720    -1.6410    -1.5850 C           1 ASB       0.654300
     17 O3           0.4060    -0.9350    -2.4130 O           1 ASB      -0.531850
     18 N2           1.9640    -1.1360    -0.7660 N           1 ASB      -0.543150
     19 C14          2.7380     0.0450    -1.1220 C          1 ASB       0.130050
     20 C15          2.5150     1.2650    -0.2580 C          1 ASB      -0.138050
     21 C16          1.8500     1.2060     0.9720 C          1 ASB      -0.095000
     22 C17          1.6680     2.3540     1.7600 C          1 ASB      -0.101300
     23 C18          0.9010     2.2660     3.0540 C          1 ASB       0.169700
     24 O4          -0.4810     2.2070     2.7010 O          1 ASB      -0.476100
     25 C19         -1.3070     2.1540     3.8620 C          1 ASB       0.106700
     26 C20          2.1430     3.5880     1.2970 C          1 ASB      -0.095000
     27 C21          2.7920     3.6920     0.0570 C          1 ASB      -0.138050
     28 C22          3.1990     5.0490    -0.4720 C          1 ASB       0.130050
     29 N3           2.1360     6.0470    -0.3940 N           1 ASB      -0.543150
     30 C23          0.8890     6.0250    -0.9680 C          1 ASB       0.661300
     31 O5           0.1280     6.9830    -0.8900 O           1 ASB      -0.558050
     32 C24          0.3770     4.7830    -1.5790 C          1 ASB       0.089750
     33 C25          0.9070     4.3420    -2.7920 C          1 ASB      -0.109250
     34 C26          0.4660     3.1450    -3.3330 C          1 ASB      -0.012000
     35 C27         -0.5030     2.4210    -2.6560 C          1 ASB      -0.109250
     36 C28         -1.0330     2.9160    -1.4600 C          1 ASB       0.070550
     37 C29         -2.1260     2.1740    -0.7850 C           1 ASB       0.654300
     38 O6          -3.1240     2.7880    -0.4280 O           1 ASB      -0.531850
     39 N4          -1.9340     0.8250    -0.5750 N           1 ASB      -0.543150
     40 C30         -2.9710     0.0420     0.0790 C          1 ASB       0.130050
     41 C31         -2.4480    -1.2670     0.6220 C          1 ASB      -0.138050
     42 C32         -1.3190    -1.2660     1.4560 C          1 ASB      -0.095000
     43 C33         -3.0800    -2.4950     0.3520 C          1 ASB       0.123100
     44 O7          -4.1630    -2.5190    -0.4880 O          1 ASB      -0.364400
     45 C34         -5.3820    -2.3810     0.2560 C          1 ASB       0.112700
     46 N5          -0.6030     4.0960    -0.9350 N          1 ASB      -0.305700
     47 C35         -1.2010     4.6360     0.3110 C          1 ASB       0.119600
     48 C36          3.0260     2.5120    -0.6720 C          1 ASB       0.123100
     49 O8           3.6760     2.5840    -1.8810 O          1 ASB      -0.364400
     50 C37          5.0960     2.5130    -1.6970 C          1 ASB       0.112700
     51 N6          -0.6000    -3.5680    -1.8670 N          1 ASB      -0.305700
     52 C38         -1.5070    -2.7210    -2.6770 C          1 ASB       0.119600
     53 H1           3.6360    -2.3200     2.0660 H          1 ASB       0.050533
     54 H2           2.8230    -1.5420     3.4410 H          1 ASB       0.050533
     55 H3           2.8580    -3.3330     3.3010 H          1 ASB       0.050533
     56 H4           0.4150    -1.5590     3.5060 H          1 ASB       0.055700
     57 H5           0.4950    -3.3350     3.4560 H          1 ASB       0.055700
     58 H6          -0.9990    -4.5960     2.0470 H          1 ASB       0.153250
     59 H7          -2.5290    -5.8720     0.8550 H          1 ASB       0.088450
     60 H8          -4.1360    -5.1480     0.8950 H          1 ASB       0.088450
     61 H9          -4.1620    -5.6500    -1.3020 H          1 ASB       0.351000
     62 H10         -0.3460    -6.7950    -0.8510 H          1 ASB       0.205000
     63 H11          1.9110    -6.0040    -0.1730 H          1 ASB       0.200500
     64 H12          2.5090    -3.6490    -0.5140 H          1 ASB       0.205000
     65 H13          2.2400    -1.6270     0.0810 H          1 ASB       0.351000
     66 H14          2.5350     0.2920    -2.1710 H          1 ASB       0.088450
     67 H15          3.7890    -0.2530    -1.0400 H          1 ASB       0.088450
     68 H16          1.4640     0.2600     1.3410 H          1 ASB       0.153250
     69 H17          1.0960     3.1410     3.6840 H          1 ASB       0.055700
     70 H18          1.1930     1.3640     3.6060 H          1 ASB       0.055700
     71 H19         -2.3490     2.1040     3.5360 H          1 ASB       0.050533
     72 H20         -1.1710     3.0550     4.4680 H          1 ASB       0.050533
     73 H21         -1.0800     1.2610     4.4510 H          1 ASB       0.050533
     74 H22          1.9870     4.4830     1.9000 H          1 ASB       0.153250
     75 H23          3.5120     5.0090    -1.5190 H          1 ASB       0.088450
     76 H24          4.0440     5.4230     0.1170 H          1 ASB       0.088450
     77 H25          2.4040     6.9690    -0.0570 H          1 ASB       0.351000
     78 H26          1.6690     4.9240    -3.3070 H          1 ASB       0.205000
     79 H27          0.8760     2.7810    -4.2750 H          1 ASB       0.200500
     80 H28         -0.8680     1.4890    -3.0840 H          1 ASB       0.205000
     81 H29         -1.1110     0.3520    -0.9320 H          1 ASB       0.351000
     82 H30         -3.7510    -0.1080    -0.6740 H          1 ASB       0.088450
     83 H31         -3.4100     0.6240     0.8980 H          1 ASB       0.088450
     84 H32         -0.8520    -0.3170     1.7170 H          1 ASB       0.153250
     85 H33         -5.4990    -3.1890     0.9850 H          1 ASB       0.058033
     86 H34         -5.4310    -1.4100     0.7590 H          1 ASB       0.058033
     87 H35         -6.2120    -2.4400    -0.4540 H          1 ASB       0.058033
     88 H36         -1.4940     3.8230     0.9740 H          1 ASB       0.115367
     89 H37         -2.0600     5.2490     0.0260 H          1 ASB       0.115367
     90 H38         -0.4720     5.2250     0.8690 H          1 ASB       0.115367
     91 H39          5.4690     3.3860    -1.1520 H          1 ASB       0.058033
     92 H40          5.5600     2.5060    -2.6870 H          1 ASB       0.058033
     93 H41          5.3860     1.5930    -1.1780 H          1 ASB       0.058033
     94 H42         -1.7140    -1.7980    -2.1340 H          1 ASB       0.115367
     95 H43         -2.4670    -3.1910    -2.8740 H          1 ASB       0.115367
     96 H44         -1.0130    -2.5330    -3.6350 H          1 ASB       0.115367
@<TRIPOS>BOND
     1     1     2 1   
     2     1    53 1   
     3     1    54 1   
     4     1    55 1   
     5     2     3 1   
     6     3     4 1   
     7     3    56 1   
     8     3    57 1   
     9     4     5 ar  
    10     4    42 ar  
    11     5     6 ar  
    12     5    58 1   
    13     6     7 1   
    14     6    43 ar  
    15     7     8 1   
    16     7    59 1   
    17     7    60 1   
    18     8     9 1   
    19     8    61 1   
    20     9    10 1   
    21     9    11 2   
    22    11    12 1   
    23    11    51 1   
    24    12    13 2   
    25    12    62 1   
    26    13    14 1   
    27    13    63 1   
    28    14    15 2   
    29    14    64 1   
    30    15    16 1   
    31    15    51 1   
    32    16    17 2   
    33    16    18 1   
    34    18    19 1   
    35    18    65 1   
    36    19    20 1   
    37    19    66 1   
    38    19    67 1   
    39    20    21 ar  
    40    20    48 ar  
    41    21    22 ar  
    42    21    68 1   
    43    22    23 1   
    44    22    26 ar  
    45    23    24 1   
    46    23    69 1   
    47    23    70 1   
    48    24    25 1   
    49    25    71 1   
    50    25    72 1   
    51    25    73 1   
    52    26    27 ar  
    53    26    74 1   
    54    27    28 1   
    55    27    48 ar  
    56    28    29 1   
    57    28    75 1   
    58    28    76 1   
    59    29    30 1   
    60    29    77 1   
    61    30    31 1   
    62    30    32 2   
    63    32    33 1   
    64    32    46 1   
    65    33    34 2   
    66    33    78 1   
    67    34    35 1   
    68    34    79 1   
    69    35    36 2   
    70    35    80 1   
    71    36    37 1   
    72    36    46 1   
    73    37    38 2   
    74    37    39 1   
    75    39    40 1   
    76    39    81 1   
    77    40    41 1   
    78    40    82 1   
    79    40    83 1   
    80    41    42 ar  
    81    41    43 ar  
    82    42    84 1   
    83    43    44 1   
    84    44    45 1   
    85    45    85 1   
    86    45    86 1   
    87    45    87 1   
    88    46    47 1   
    89    47    88 1   
    90    47    89 1   
    91    47    90 1   
    92    48    49 1   
    93    49    50 1   
    94    50    91 1   
    95    50    92 1   
    96    50    93 1   
    97    51    52 1   
    98    52    94 1   
    99    52    95 1   
   100    52    96 1   
@<TRIPOS>SUBSTRUCTURE
     1 ASB         1 TEMP              0 ****  ****    0 ROOT
