@<TRIPOS>MOLECULE
ASB
  126   134     1     0     0
SMALL
bcc


@<TRIPOS>ATOM
      1 C1          -2.8380     1.1190    -4.7850 C          1 ASB       0.110700
      2 O1          -3.2370     0.5750    -3.5270 O          1 ASB      -0.443600
      3 C2          -3.7130    -0.7690    -3.6960 C          1 ASB       0.165700
      4 C3          -4.2410    -1.2430    -2.3660 C          1 ASB      -0.071300
      5 C4          -5.4060    -0.6630    -1.8430 C          1 ASB      -0.084000
      6 C5          -5.8910    -1.0150    -0.5740 C          1 ASB      -0.142300
      7 C6          -7.0570    -0.2580     0.0300 C          1 ASB       0.130300
      8 N1          -6.9110     1.1840    -0.1520 N           1 ASB      -0.515400
      9 C7          -5.9410     1.8680     0.5380 C           1 ASB       0.654200
     10 O2          -5.2290     1.4070     1.4240 O           1 ASB      -0.550100
     11 C8          -5.6140     3.2460     0.1130 C          1 ASB       0.008600
     12 C9          -6.5850     4.2070    -0.1070 C          1 ASB      -0.135500
     13 C10         -6.1790     5.4920    -0.4320 C          1 ASB       0.026000
     14 C11         -4.8210     5.8260    -0.3920 C          1 ASB      -0.025000
     15 C12         -4.3980     7.1130    -0.7360 C          1 ASB      -0.066000
     16 C13         -3.0430     7.4440    -0.7190 C          1 ASB      -0.066000
     17 C14         -2.0940     6.5410    -0.2300 C          1 ASB      -0.025000
     18 C15         -0.7410     6.8840    -0.2050 C          1 ASB       0.026000
     19 C16          0.1910     5.9880     0.2990 C          1 ASB      -0.135500
     20 C17         -0.2580     4.8240     0.9100 C          1 ASB       0.008600
     21 C18          0.6800     3.7780     1.4190 C           1 ASB       0.654200
     22 O3           0.2630     2.6230     1.4270 O           1 ASB      -0.550100
     23 N2           1.9330     4.1490     1.8540 N           1 ASB      -0.515400
     24 C19          2.7780     3.2200     2.6010 C          1 ASB       0.130300
     25 C20          3.7990     2.4480     1.7940 C          1 ASB      -0.142300
     26 C21          3.7930     2.4020     0.3910 C          1 ASB      -0.084000
     27 C22          4.7290     1.6280    -0.3120 C          1 ASB      -0.071300
     28 C23          4.7180     1.5630    -1.8180 C          1 ASB       0.165700
     29 O4           4.2840     0.2490    -2.1990 O          1 ASB      -0.443600
     30 C24          4.3750     0.0900    -3.6140 C          1 ASB       0.110700
     31 C25          5.6690     0.8710     0.4020 C          1 ASB      -0.084000
     32 C26          5.6660     0.8380     1.8050 C          1 ASB      -0.142300
     33 C27          6.5870    -0.1130     2.5430 C          1 ASB       0.130300
     34 N3           6.5860    -1.4410     1.9350 N           1 ASB      -0.515400
     35 C28          5.4710    -2.2390     2.0320 C           1 ASB       0.654200
     36 O5           4.4740    -2.0020     2.7060 O           1 ASB      -0.550100
     37 C29          5.3810    -3.4290     1.1600 C          1 ASB       0.008600
     38 C30          6.4160    -4.3400     1.0360 C          1 ASB      -0.135500
     39 C31          6.2110    -5.4660     0.2520 C          1 ASB       0.026000
     40 C32          4.9430    -5.7300    -0.2750 C          1 ASB      -0.025000
     41 C33          4.7300    -6.8500    -1.0820 C          1 ASB      -0.066000
     42 C34          3.4720    -7.1050    -1.6270 C          1 ASB      -0.066000
     43 C35          2.3680    -6.3240    -1.2710 C          1 ASB      -0.025000
     44 C36          1.1090    -6.5920    -1.8120 C          1 ASB       0.026000
     45 C37          0.0170    -5.8230    -1.4380 C          1 ASB      -0.135500
     46 C38          0.1670    -4.8950    -0.4150 C          1 ASB       0.008600
     47 C39         -0.9400    -3.9830     0.0020 C           1 ASB       0.654200
     48 O6          -0.6100    -2.8970     0.4710 O           1 ASB      -0.550100
     49 N4          -2.2450    -4.3960    -0.1430 N           1 ASB      -0.515400
     50 C40         -3.3430    -3.6660     0.4880 C          1 ASB       0.130300
     51 C41         -4.0580    -2.6520    -0.3780 C          1 ASB      -0.142300
     52 C42         -3.5690    -2.2250    -1.6220 C          1 ASB      -0.084000
     53 C43         -5.2400    -2.0540     0.1150 C          1 ASB       0.134100
     54 O7          -5.6910    -2.4450     1.3530 O          1 ASB      -0.362900
     55 C44         -6.7740    -3.3770     1.2310 C          1 ASB       0.110700
     56 N5           1.3830    -4.7260     0.1980 N          1 ASB       0.041400
     57 C45          1.3700    -4.3110     1.6430 C          1 ASB      -0.045400
     58 C46          2.5310    -5.2580    -0.3460 C          1 ASB       0.003700
     59 C47          3.8590    -4.8500     0.0010 C          1 ASB       0.003700
     60 N6           4.1800    -3.6270     0.5380 N          1 ASB       0.041400
     61 C48          3.4350    -2.3900     0.1210 C          1 ASB      -0.045400
     62 C49          4.7660     1.6800     2.4820 C          1 ASB       0.134100
     63 O8           4.7400     1.6940     3.8560 O          1 ASB      -0.362900
     64 C50          5.7500     2.5690     4.3760 C          1 ASB       0.110700
     65 N7          -1.6010     4.5550     0.9920 N          1 ASB       0.041400
     66 C51         -2.0690     3.7600     2.1790 C          1 ASB      -0.045400
     67 C52         -2.5130     5.2720     0.2510 C          1 ASB       0.003700
     68 C53         -3.8580     4.8510    -0.0090 C          1 ASB       0.003700
     69 N8          -4.2830     3.5460     0.0260 N          1 ASB       0.041400
     70 C54         -3.3790     2.4350    -0.4290 C          1 ASB      -0.045400
     71 H1          -2.4690     2.1340    -4.6150 H          1 ASB       0.050367
     72 H2          -2.0310     0.5210    -5.2210 H          1 ASB       0.050367
     73 H3          -3.6900     1.1660    -5.4690 H          1 ASB       0.050367
     74 H4          -4.5170    -0.8000    -4.4410 H          1 ASB       0.053700
     75 H5          -2.8910    -1.4060    -4.0410 H          1 ASB       0.053700
     76 H6          -5.9200     0.0980    -2.4290 H          1 ASB       0.146000
     77 H7          -7.1440    -0.4390     1.1050 H          1 ASB       0.100950
     78 H8          -7.9890    -0.5660    -0.4550 H          1 ASB       0.100950
     79 H9          -7.4420     1.5970    -0.9100 H          1 ASB       0.337000
     80 H10         -7.6460     3.9690    -0.0420 H          1 ASB       0.219000
     81 H11         -6.9350     6.2430    -0.6730 H          1 ASB       0.217500
     82 H12         -5.1140     7.8700    -1.0650 H          1 ASB       0.208000
     83 H13         -2.7500     8.4420    -1.0560 H          1 ASB       0.208000
     84 H14         -0.3960     7.8360    -0.6160 H          1 ASB       0.217500
     85 H15          1.2500     6.2270     0.2230 H          1 ASB       0.219000
     86 H16          2.2380     5.1150     1.8810 H          1 ASB       0.337000
     87 H17          2.1330     2.5090     3.1310 H          1 ASB       0.100950
     88 H18          3.2920     3.8380     3.3450 H          1 ASB       0.100950
     89 H19          3.0540     2.9670    -0.1690 H          1 ASB       0.146000
     90 H20          4.0340     2.3090    -2.2380 H          1 ASB       0.053700
     91 H21          5.7280     1.7590    -2.2000 H          1 ASB       0.053700
     92 H22          4.0230    -0.9140    -3.8680 H          1 ASB       0.050367
     93 H23          5.4130     0.1910    -3.9450 H          1 ASB       0.050367
     94 H24          3.7410     0.8230    -4.1230 H          1 ASB       0.050367
     95 H25          6.3910     0.2750    -0.1540 H          1 ASB       0.146000
     96 H26          6.2870    -0.2380     3.5880 H          1 ASB       0.100950
     97 H27          7.6130     0.2690     2.5150 H          1 ASB       0.100950
     98 H28          7.3660    -1.6570     1.3260 H          1 ASB       0.337000
     99 H29          7.3740    -4.1830     1.5280 H          1 ASB       0.219000
    100 H30          7.0410    -6.1590     0.0930 H          1 ASB       0.217500
    101 H31          5.5530    -7.5230    -1.3360 H          1 ASB       0.208000
    102 H32          3.3640    -7.9560    -2.3050 H          1 ASB       0.208000
    103 H33          0.9770    -7.3770    -2.5610 H          1 ASB       0.217500
    104 H34         -0.9360    -5.9790    -1.9380 H          1 ASB       0.219000
    105 H35         -2.4920    -5.3160    -0.4890 H          1 ASB       0.337000
    106 H36         -2.9590    -3.1610     1.3820 H          1 ASB       0.100950
    107 H37         -4.0520    -4.4380     0.8080 H          1 ASB       0.100950
    108 H38         -2.6550    -2.6510    -2.0240 H          1 ASB       0.146000
    109 H39         -6.9930    -3.7630     2.2310 H          1 ASB       0.056700
    110 H40         -6.5040    -4.2240     0.5910 H          1 ASB       0.056700
    111 H41         -7.6750    -2.8890     0.8500 H          1 ASB       0.056700
    112 H42          2.2550    -4.7120     2.1430 H          1 ASB       0.111700
    113 H43          0.4920    -4.7530     2.1250 H          1 ASB       0.111700
    114 H44          1.3530    -3.2260     1.7130 H          1 ASB       0.111700
    115 H45          2.7660    -2.6260    -0.7080 H          1 ASB       0.111700
    116 H46          4.1660    -1.6640    -0.2430 H          1 ASB       0.111700
    117 H47          2.8730    -1.9930     0.9630 H          1 ASB       0.111700
    118 H48          6.7510     2.1630     4.2080 H          1 ASB       0.056700
    119 H49          5.6720     3.5730     3.9430 H          1 ASB       0.056700
    120 H50          5.5930     2.6520     5.4560 H          1 ASB       0.056700
    121 H51         -2.0230     2.6980     1.9510 H          1 ASB       0.111700
    122 H52         -1.4360     4.0080     3.0370 H          1 ASB       0.111700
    123 H53         -3.0910     4.0530     2.4310 H          1 ASB       0.111700
    124 H54         -3.1240     1.7940     0.4130 H          1 ASB       0.111700
    125 H55         -2.4760     2.8550    -0.8760 H          1 ASB       0.111700
    126 H56         -3.9010     1.8740    -1.2070 H          1 ASB       0.111700
@<TRIPOS>BOND
     1     1     2 1   
     2     1    71 1   
     3     1    72 1   
     4     1    73 1   
     5     2     3 1   
     6     3     4 1   
     7     3    74 1   
     8     3    75 1   
     9     4     5 ar  
    10     4    52 ar  
    11     5     6 ar  
    12     5    76 1   
    13     6     7 1   
    14     6    53 ar  
    15     7     8 1   
    16     7    77 1   
    17     7    78 1   
    18     8     9 1   
    19     8    79 1   
    20     9    10 2   
    21     9    11 1   
    22    11    12 2   
    23    11    69 1   
    24    12    13 1   
    25    12    80 1   
    26    13    14 2   
    27    13    81 1   
    28    14    15 ar  
    29    14    68 ar  
    30    15    16 ar  
    31    15    82 1   
    32    16    17 ar  
    33    16    83 1   
    34    17    18 2   
    35    17    67 ar  
    36    18    19 1   
    37    18    84 1   
    38    19    20 2   
    39    19    85 1   
    40    20    21 1   
    41    20    65 1   
    42    21    22 2   
    43    21    23 1   
    44    23    24 1   
    45    23    86 1   
    46    24    25 1   
    47    24    87 1   
    48    24    88 1   
    49    25    26 ar  
    50    25    62 ar  
    51    26    27 ar  
    52    26    89 1   
    53    27    28 1   
    54    27    31 ar  
    55    28    29 1   
    56    28    90 1   
    57    28    91 1   
    58    29    30 1   
    59    30    92 1   
    60    30    93 1   
    61    30    94 1   
    62    31    32 ar  
    63    31    95 1   
    64    32    33 1   
    65    32    62 ar  
    66    33    34 1   
    67    33    96 1   
    68    33    97 1   
    69    34    35 1   
    70    34    98 1   
    71    35    36 2   
    72    35    37 1   
    73    37    38 2   
    74    37    60 1   
    75    38    39 1   
    76    38    99 1   
    77    39    40 2   
    78    39   100 1   
    79    40    41 ar  
    80    40    59 ar  
    81    41    42 ar  
    82    41   101 1   
    83    42    43 ar  
    84    42   102 1   
    85    43    44 2   
    86    43    58 ar  
    87    44    45 1   
    88    44   103 1   
    89    45    46 2   
    90    45   104 1   
    91    46    47 1   
    92    46    56 1   
    93    47    48 2   
    94    47    49 1   
    95    49    50 1   
    96    49   105 1   
    97    50    51 1   
    98    50   106 1   
    99    50   107 1   
   100    51    52 ar  
   101    51    53 ar  
   102    52   108 1   
   103    53    54 1   
   104    54    55 1   
   105    55   109 1   
   106    55   110 1   
   107    55   111 1   
   108    56    57 1   
   109    56    58 1   
   110    57   112 1   
   111    57   113 1   
   112    57   114 1   
   113    58    59 ar  
   114    59    60 1   
   115    60    61 1   
   116    61   115 1   
   117    61   116 1   
   118    61   117 1   
   119    62    63 1   
   120    63    64 1   
   121    64   118 1   
   122    64   119 1   
   123    64   120 1   
   124    65    66 1   
   125    65    67 1   
   126    66   121 1   
   127    66   122 1   
   128    66   123 1   
   129    67    68 ar  
   130    68    69 1   
   131    69    70 1   
   132    70   124 1   
   133    70   125 1   
   134    70   126 1   
@<TRIPOS>SUBSTRUCTURE
     1 ASB         1 TEMP              0 ****  ****    0 ROOT
