@<TRIPOS>MOLECULE
181
   59    62     1     0     0
SMALL
bcc


@<TRIPOS>ATOM
      1 O           -3.1300    -3.5060     0.0870 O           0 181      -0.634600
      2 C           -2.4610    -2.4930     0.1820 C           0 181       0.698700
      3 N           -1.0970    -2.5150     0.3280 N           0 181      -0.570900
      4 C1          -0.4240    -3.8220     0.2160 C          0 181       0.087500
      5 C2           0.8590    -3.6400    -0.6000 C          0 181      -0.131900
      6 C3           2.0670    -3.6190     0.3360 C          0 181       0.088000
      7 N1           2.7800    -2.3360     0.1800 N           0 181      -0.552400
      8 C4           4.1370    -2.4030     0.0370 C           0 181       0.567600
      9 O1           4.7070    -3.4760    -0.0040 O           0 181      -0.602100
     10 C5           4.8950    -1.1340    -0.0670 C          0 181       0.352300
     11 C6           6.2810    -1.1510    -0.2190 C          0 181      -0.174300
     12 C7           6.9670     0.0500    -0.3080 C          0 181      -0.108000
     13 C8           6.2460     1.2320    -0.2430 C          0 181      -0.174300
     14 C9           4.8610     1.1770    -0.0900 C          0 181       0.352300
     15 N2           4.2340     0.0130    -0.0120 N          0 181      -0.647000
     16 C10          4.0670     2.4250    -0.0050 C           0 181       0.567600
     17 O2           4.6130     3.5110    -0.0240 O           0 181      -0.602100
     18 N3           2.7100     2.3300     0.0950 N           0 181      -0.552400
     19 C11          1.9740     3.5960     0.2840 C          0 181       0.088000
     20 C12          0.7270     3.5960    -0.5990 C          0 181      -0.131900
     21 C13         -0.5110     3.8580     0.2660 C          0 181       0.087500
     22 N4          -1.1930     2.5720     0.4990 N           0 181      -0.570900
     23 C14         -2.5350     2.5090     0.2170 C           0 181       0.698700
     24 O3          -3.2150     3.5010     0.0270 O           0 181      -0.634600
     25 C15         -3.0850     1.1450     0.1610 C          0 181      -0.246100
     26 C16         -4.4650     0.7190    -0.0080 C          0 181       0.001500
     27 C17         -5.5770     1.5510    -0.1420 C          0 181      -0.018000
     28 C18         -6.9050     1.1940    -0.3050 C          0 181      -0.143000
     29 C19         -7.4750    -0.0680    -0.3780 C          0 181      -0.050000
     30 C20         -6.8670    -1.3120    -0.3070 C          0 181      -0.143000
     31 C21         -5.5270    -1.6250    -0.1450 C          0 181      -0.018000
     32 C22         -4.4430    -0.7590    -0.0110 C          0 181       0.001500
     33 C23         -3.0490    -1.1430     0.1440 C          0 181      -0.246100
     34 C24         -2.2760     0.0120     0.2600 C          0 181      -0.043000
     35 H           -0.5950    -1.7030     0.4990 H          0 181       0.304500
     36 H1          -0.1750    -4.1920     1.2110 H          0 181       0.061200
     37 H2          -1.0810    -4.5300    -0.2870 H          0 181       0.061200
     38 H3           0.9610    -4.4660    -1.3040 H          0 181       0.064200
     39 H4           0.8090    -2.7000    -1.1490 H          0 181       0.064200
     40 H5           1.7310    -3.7250     1.3670 H          0 181       0.060700
     41 H6           2.7370    -4.4400     0.0840 H          0 181       0.060700
     42 H7           2.3090    -1.4880     0.1790 H          0 181       0.322500
     43 H8           6.8140    -2.0890    -0.2670 H          0 181       0.173000
     44 H9           8.0410     0.0650    -0.4250 H          0 181       0.152000
     45 H10          6.7510     2.1840    -0.3100 H          0 181       0.173000
     46 H11          2.2530     1.4760     0.0430 H          0 181       0.322500
     47 H12          1.6790     3.6920     1.3290 H          0 181       0.060700
     48 H13          2.6140     4.4340     0.0090 H          0 181       0.060700
     49 H14          0.8150     4.3790    -1.3530 H          0 181       0.064200
     50 H15          0.6280     2.6280    -1.0900 H          0 181       0.064200
     51 H16         -0.2070     4.2910     1.2190 H          0 181       0.061200
     52 H17         -1.1830     4.5430    -0.2510 H          0 181       0.061200
     53 H18         -0.7130     1.8010     0.8380 H          0 181       0.304500
     54 H19         -5.3750     2.6110    -0.1140 H          0 181       0.180500
     55 H20         -7.5980     2.0190    -0.3880 H          0 181       0.138500
     56 H21         -8.5470    -0.0840    -0.5080 H          0 181       0.132000
     57 H22         -7.5330    -2.1580    -0.3890 H          0 181       0.138500
     58 H23         -5.2910    -2.6790    -0.1180 H          0 181       0.180500
     59 H24         -1.2050     0.0270     0.4000 H          0 181       0.136000
@<TRIPOS>BOND
     1     1     2 2   
     2     2     3 1   
     3     2    33 1   
     4     3     4 1   
     5     3    35 1   
     6     4     5 1   
     7     4    36 1   
     8     4    37 1   
     9     5     6 1   
    10     5    38 1   
    11     5    39 1   
    12     6     7 1   
    13     6    40 1   
    14     6    41 1   
    15     7     8 1   
    16     7    42 1   
    17     8     9 2   
    18     8    10 1   
    19    10    11 ar  
    20    10    15 ar  
    21    11    12 ar  
    22    11    43 1   
    23    12    13 ar  
    24    12    44 1   
    25    13    14 ar  
    26    13    45 1   
    27    14    15 ar  
    28    14    16 1   
    29    16    17 2   
    30    16    18 1   
    31    18    19 1   
    32    18    46 1   
    33    19    20 1   
    34    19    47 1   
    35    19    48 1   
    36    20    21 1   
    37    20    49 1   
    38    20    50 1   
    39    21    22 1   
    40    21    51 1   
    41    21    52 1   
    42    22    23 1   
    43    22    53 1   
    44    23    24 2   
    45    23    25 1   
    46    25    26 1   
    47    25    34 2   
    48    26    27 2   
    49    26    32 1   
    50    27    28 1   
    51    27    54 1   
    52    28    29 2   
    53    28    55 1   
    54    29    30 1   
    55    29    56 1   
    56    30    31 2   
    57    30    57 1   
    58    31    32 1   
    59    31    58 1   
    60    32    33 2   
    61    33    34 1   
    62    34    59 1   
@<TRIPOS>SUBSTRUCTURE
     1 181         1 TEMP              0 ****  ****    0 ROOT
