@<TRIPOS>MOLECULE
4
  108   114     1     0     0
SMALL
bcc


@<TRIPOS>ATOM
      1 C1          -2.0570    -3.6520    -1.8070 C          1 4        -0.121083
      2 C2          -0.9050    -4.2090    -1.2450 C          1 4        -0.121083
      3 C3          -0.2860    -3.6080    -0.1400 C          1 4        -0.098133
      4 C4          -0.8160    -2.4160     0.3670 C          1 4        -0.121083
      5 C5          -1.9630    -1.8550    -0.2000 C          1 4        -0.121083
      6 C6          -2.6040    -2.4740    -1.2840 C          1 4        -0.098133
      7 C7          -3.8600    -1.8760    -1.8740 C          1 4         0.213767
      8 N1          -4.9090    -1.7990    -0.8630 N          1 4        -0.830700
      9 C8          -6.1490    -1.1590    -1.3410 C          1 4         0.167667
     10 C9          -7.0740    -2.1220    -2.1030 C          1 4        -0.083733
     11 C10         -7.7390    -3.1640    -1.2080 C          1 4        -0.078233
     12 C11         -8.4720    -2.5110    -0.0420 C          1 4        -0.078233
     13 C12         -7.5510    -1.6020     0.7650 C          1 4        -0.083733
     14 C13         -6.8970    -0.5230    -0.1180 C          1 4         0.167667
     15 N2          -5.9540     0.2260     0.7410 N          1 4        -0.830700
     16 C14         -5.6490     1.5530     0.2030 C          1 4         0.213767
     17 C15         -4.2220     1.9520     0.5030 C          1 4        -0.098133
     18 C16         -3.2880     2.0720    -0.5340 C          1 4        -0.121083
     19 C17         -1.9650     2.4250    -0.2610 C          1 4        -0.121083
     20 C18         -1.5450     2.6520     1.0560 C          1 4        -0.098133
     21 C19         -2.4790     2.5360     2.0940 C          1 4        -0.121083
     22 C20         -3.8040     2.1860     1.8200 C          1 4        -0.121083
     23 C21         -0.1180     3.0590     1.3350 C          1 4         0.213767
     24 N3           0.0540     4.4890     1.0800 N          1 4        -0.830700
     25 C22          1.4260     4.9580     1.3500 C          1 4         0.167667
     26 C23          1.3950     6.4920     1.5400 C          1 4        -0.083733
     27 C24          1.0770     7.2470     0.2490 C          1 4        -0.078233
     28 C25          2.0100     6.8490    -0.8900 C          1 4        -0.078233
     29 C26          2.0520     5.3340    -1.0850 C          1 4        -0.083733
     30 C27          2.4340     4.5800     0.2060 C          1 4         0.167667
     31 N4           3.8110     4.8740     0.6630 N          1 4        -0.830700
     32 C28          4.8770     4.4550    -0.2470 C          1 4         0.213767
     33 C29          5.0410     2.9580    -0.3550 C          1 4        -0.098133
     34 C30          4.6390     2.2760    -1.5120 C          1 4        -0.121083
     35 C31          4.8150     0.8930    -1.6220 C          1 4        -0.121083
     36 C32          5.4020     0.1670    -0.5780 C          1 4        -0.098133
     37 C33          5.7750     0.8440     0.5910 C          1 4        -0.121083
     38 C34          5.6020     2.2250     0.7000 C          1 4        -0.121083
     39 C35          5.6210    -1.3230    -0.6950 C          1 4         0.213767
     40 N5           4.5560    -2.0590    -0.0100 N          1 4        -0.830700
     41 C36          4.6600    -3.5270    -0.1780 C          1 4         0.167667
     42 C37          5.9480    -4.0820     0.4640 C          1 4        -0.083733
     43 C38          6.0510    -5.5970     0.3290 C          1 4        -0.078233
     44 C39          4.8320    -6.2940     0.9110 C          1 4        -0.078233
     45 C40          3.5400    -5.7730     0.2900 C          1 4        -0.083733
     46 C41          3.4020    -4.2450     0.4390 C          1 4         0.167667
     47 N6           2.1560    -3.7530    -0.1950 N          1 4        -0.830700
     48 C42          0.9450    -4.2310     0.4760 C          1 4         0.213767
     49 H1          -2.5220    -4.1480    -2.6560 H          1 4         0.138167
     50 H2          -0.4910    -5.1210    -1.6700 H          1 4         0.138167
     51 H3          -0.3480    -1.9190     1.2130 H          1 4         0.138167
     52 H4          -2.3700    -0.9350     0.2180 H          1 4         0.138167
     53 H5          -4.1950    -2.4780    -2.7270 H          1 4         0.040033
     54 H6          -3.6120    -0.8780    -2.2550 H          1 4         0.040033
     55 H7          -5.0950    -2.7290    -0.4910 H          1 4         0.369800
     56 H8          -5.8780    -0.3420    -2.0220 H          1 4         0.050533
     57 H9          -7.8590    -1.5310    -2.5930 H          1 4         0.046283
     58 H10         -6.5290    -2.6270    -2.9090 H          1 4         0.046283
     59 H11         -8.4480    -3.7540    -1.8010 H          1 4         0.040700
     60 H12         -6.9890    -3.8670    -0.8270 H          1 4         0.040700
     61 H13         -8.8880    -3.2870     0.6110 H          1 4         0.040700
     62 H14         -9.3200    -1.9280    -0.4230 H          1 4         0.040700
     63 H15         -8.1310    -1.1250     1.5650 H          1 4         0.046283
     64 H16         -6.7860    -2.2170     1.2580 H          1 4         0.046283
     65 H17         -7.6920     0.1430    -0.4800 H          1 4         0.050533
     66 H18         -5.0870    -0.3270     0.7100 H          1 4         0.369800
     67 H19         -5.8080     1.6080    -0.8810 H          1 4         0.040033
     68 H20         -6.3280     2.2900     0.6480 H          1 4         0.040033
     69 H21         -3.5830     1.8910    -1.5650 H          1 4         0.138167
     70 H22         -1.2580     2.5300    -1.0820 H          1 4         0.138167
     71 H23         -2.1820     2.7160     3.1240 H          1 4         0.138167
     72 H24         -4.5150     2.0860     2.6380 H          1 4         0.138167
     73 H25          0.1320     2.8200     2.3760 H          1 4         0.040033
     74 H26          0.5420     2.4550     0.7030 H          1 4         0.040033
     75 H27         -0.6070     4.9940     1.6690 H          1 4         0.369800
     76 H28          1.7640     4.5220     2.2990 H          1 4         0.050533
     77 H29          0.6620     6.7650     2.3100 H          1 4         0.046283
     78 H30          2.3660     6.8320     1.9210 H          1 4         0.046283
     79 H31          1.1560     8.3260     0.4270 H          1 4         0.040700
     80 H32          0.0390     7.0550    -0.0470 H          1 4         0.040700
     81 H33          1.6770     7.3280    -1.8180 H          1 4         0.040700
     82 H34          3.0190     7.2260    -0.6870 H          1 4         0.040700
     83 H35          2.7340     5.0890    -1.9060 H          1 4         0.046283
     84 H36          1.0640     4.9930    -1.4220 H          1 4         0.046283
     85 H37          2.3580     3.5040     0.0190 H          1 4         0.050533
     86 H38          3.9630     4.4140     1.5600 H          1 4         0.369800
     87 H39          5.8210     4.8650     0.1350 H          1 4         0.040033
     88 H40          4.7680     4.9100    -1.2370 H          1 4         0.040033
     89 H41          4.1880     2.8200    -2.3390 H          1 4         0.138167
     90 H42          4.4990     0.3890    -2.5320 H          1 4         0.138167
     91 H43          6.2100     0.2920     1.4220 H          1 4         0.138167
     92 H44          5.9160     2.7290     1.6110 H          1 4         0.138167
     93 H45          6.6040    -1.5450    -0.2650 H          1 4         0.040033
     94 H46          5.6650    -1.6030    -1.7550 H          1 4         0.040033
     95 H47          3.6830    -1.7520    -0.4350 H          1 4         0.369800
     96 H48          4.6800    -3.7520    -1.2540 H          1 4         0.050533
     97 H49          6.8380    -3.6510    -0.0070 H          1 4         0.046283
     98 H50          5.9830    -3.8080     1.5260 H          1 4         0.046283
     99 H51          6.1550    -5.8640    -0.7300 H          1 4         0.040700
    100 H52          6.9550    -5.9520     0.8370 H          1 4         0.040700
    101 H53          4.8050    -6.1400     1.9970 H          1 4         0.040700
    102 H54          4.9110    -7.3740     0.7440 H          1 4         0.040700
    103 H55          2.7100    -6.2930     0.7790 H          1 4         0.046283
    104 H56          3.5100    -6.0490    -0.7720 H          1 4         0.046283
    105 H57          3.3700    -3.9960     1.5090 H          1 4         0.050533
    106 H58          2.1390    -2.7390    -0.1180 H          1 4         0.369800
    107 H59          0.8450    -5.3190     0.3960 H          1 4         0.040033
    108 H60          0.9720    -3.9900     1.5460 H          1 4         0.040033
@<TRIPOS>BOND
     1     1     2 ar  
     2     1     6 ar  
     3     1    49 1   
     4     2     3 ar  
     5     2    50 1   
     6     3     4 ar  
     7     3    48 1   
     8     4     5 ar  
     9     4    51 1   
    10     5     6 ar  
    11     5    52 1   
    12     6     7 1   
    13     7     8 1   
    14     7    53 1   
    15     7    54 1   
    16     8     9 1   
    17     8    55 1   
    18     9    10 1   
    19     9    14 1   
    20     9    56 1   
    21    10    11 1   
    22    10    57 1   
    23    10    58 1   
    24    11    12 1   
    25    11    59 1   
    26    11    60 1   
    27    12    13 1   
    28    12    61 1   
    29    12    62 1   
    30    13    14 1   
    31    13    63 1   
    32    13    64 1   
    33    14    15 1   
    34    14    65 1   
    35    15    16 1   
    36    15    66 1   
    37    16    17 1   
    38    16    67 1   
    39    16    68 1   
    40    17    18 ar  
    41    17    22 ar  
    42    18    19 ar  
    43    18    69 1   
    44    19    20 ar  
    45    19    70 1   
    46    20    21 ar  
    47    20    23 1   
    48    21    22 ar  
    49    21    71 1   
    50    22    72 1   
    51    23    24 1   
    52    23    73 1   
    53    23    74 1   
    54    24    25 1   
    55    24    75 1   
    56    25    26 1   
    57    25    30 1   
    58    25    76 1   
    59    26    27 1   
    60    26    77 1   
    61    26    78 1   
    62    27    28 1   
    63    27    79 1   
    64    27    80 1   
    65    28    29 1   
    66    28    81 1   
    67    28    82 1   
    68    29    30 1   
    69    29    83 1   
    70    29    84 1   
    71    30    31 1   
    72    30    85 1   
    73    31    32 1   
    74    31    86 1   
    75    32    33 1   
    76    32    87 1   
    77    32    88 1   
    78    33    34 ar  
    79    33    38 ar  
    80    34    35 ar  
    81    34    89 1   
    82    35    36 ar  
    83    35    90 1   
    84    36    37 ar  
    85    36    39 1   
    86    37    38 ar  
    87    37    91 1   
    88    38    92 1   
    89    39    40 1   
    90    39    93 1   
    91    39    94 1   
    92    40    41 1   
    93    40    95 1   
    94    41    42 1   
    95    41    46 1   
    96    41    96 1   
    97    42    43 1   
    98    42    97 1   
    99    42    98 1   
   100    43    44 1   
   101    43    99 1   
   102    43   100 1   
   103    44    45 1   
   104    44   101 1   
   105    44   102 1   
   106    45    46 1   
   107    45   103 1   
   108    45   104 1   
   109    46    47 1   
   110    46   105 1   
   111    47    48 1   
   112    47   106 1   
   113    48   107 1   
   114    48   108 1   
@<TRIPOS>SUBSTRUCTURE
     1 4           1 TEMP              0 ****  ****    0 ROOT
