@<TRIPOS>MOLECULE
DCD
  170   176     1     0     0
SMALL
bcc


@<TRIPOS>ATOM
      1 N1           3.8350    -2.6460     4.0590 N          1 DCD      -0.916300
      2 C1           2.4290    -2.4500     4.5320 C          1 DCD       0.110000
      3 C2           2.3280    -1.1820     5.3730 C          1 DCD      -0.162400
      4 C3           0.9610    -1.0690     5.9860 C           1 DCD       0.648600
      5 O1           0.1620    -0.1710     5.7740 O           1 DCD      -0.561000
      6 O2           0.6980    -2.0870     6.8260 O          1 DCD      -0.608100
      7 C4           1.4880    -2.3240     3.3140 C           1 DCD       0.670100
      8 O3           0.2710    -2.4630     3.3970 O           1 DCD      -0.601600
      9 N2           2.1380    -1.9830     2.1490 N           1 DCD      -0.540400
     10 C5           1.4280    -1.6600     0.9170 C          1 DCD       0.045200
     11 C6           1.3400    -2.8460    -0.0560 C          1 DCD      -0.057300
     12 S1           0.2590    -4.2160     0.4910 S          1 DCD      -0.111100
     13 S2          -1.6130    -3.5920    -0.0810 S          1 DCD      -0.191600
     14 C7          -2.2100    -2.6500     1.3690 C          1 DCD      -0.038300
     15 C8          -3.6300    -2.1050     1.1640 C          1 DCD       0.057200
     16 C9          -4.0730    -1.3660     2.4410 C           1 DCD       0.641600
     17 O4          -4.2650    -0.1500     2.4770 O           1 DCD      -0.616100
     18 N3          -4.3150    -2.1290     3.5540 N           1 DCD      -0.550900
     19 C10         -4.4200    -1.5750     4.9190 C          1 DCD       0.023700
     20 C11         -3.1350    -0.8920     5.3900 C          1 DCD      -0.171900
     21 C12         -2.8220    -1.2600     6.8200 C           1 DCD       0.642100
     22 O5          -1.8610    -1.9560     7.1330 O           1 DCD      -0.529000
     23 O6          -3.6700    -0.7800     7.7480 O          1 DCD      -0.596600
     24 C13         -5.5790    -0.6120     5.2350 C           1 DCD       0.618100
     25 O7          -5.8390    -0.3060     6.3970 O           1 DCD      -0.520500
     26 O8          -6.2130    -0.0400     4.2020 O          1 DCD      -0.565600
     27 N4          -3.7060    -1.1380     0.0630 N           1 DCD      -0.550400
     28 C14         -4.2280    -1.4600    -1.1670 C           1 DCD       0.651100
     29 O9          -4.5730    -2.6040    -1.4650 O           1 DCD      -0.611600
     30 C15         -4.2170    -0.3160    -2.2060 C          1 DCD       0.043200
     31 C16         -5.2810    -0.5450    -3.2810 C          1 DCD      -0.166900
     32 C17         -6.6790    -0.5960    -2.6900 C           1 DCD       0.663600
     33 O10         -7.3230     0.4380    -2.5490 O           1 DCD      -0.622600
     34 N5          -7.0680    -1.8650    -2.3080 N           1 DCD      -0.457600
     35 C18         -8.2950    -2.2560    -1.7350 C          1 DCD       0.052100
     36 C19         -8.4000    -3.5830    -1.3070 C          1 DCD      -0.149500
     37 C20         -9.5810    -4.0530    -0.7280 C          1 DCD      -0.095500
     38 C21        -10.6840    -3.2050    -0.5640 C          1 DCD      -0.049000
     39 C22        -11.8800    -3.6600     0.0170 C          1 DCD      -0.098500
     40 C23        -12.9850    -2.8080     0.1790 C          1 DCD      -0.037000
     41 C24        -14.1810    -3.2610     0.7600 C          1 DCD      -0.116500
     42 C25        -15.2700    -2.4020     0.9150 C          1 DCD      -0.126000
     43 C26        -15.1770    -1.0800     0.4910 C          1 DCD      -0.123000
     44 C27        -13.9950    -0.6150    -0.0890 C          1 DCD      -0.119500
     45 C28        -12.8910    -1.4680    -0.2510 C          1 DCD      -0.027000
     46 C29        -11.6950    -1.0150    -0.8330 C          1 DCD      -0.111000
     47 C30        -10.5890    -1.8660    -0.9960 C          1 DCD      -0.016000
     48 C31         -9.3930    -1.4080    -1.5800 C          1 DCD      -0.156000
     49 N6          -4.3510     0.9970    -1.5690 N           1 DCD      -0.552400
     50 C32         -3.4220     1.9760    -1.3780 C           1 DCD       0.626600
     51 O11         -3.6340     2.7510    -0.4420 O           1 DCD      -0.573600
     52 C33         -2.1530     2.0670    -2.2660 C          1 DCD       0.045200
     53 N7          -1.2970     3.1350    -1.7440 N           1 DCD      -0.540400
     54 C34         -1.5880     4.4770    -1.9000 C           1 DCD       0.670100
     55 O12         -2.4600     4.9100    -2.6450 O           1 DCD      -0.601600
     56 C35         -0.6360     5.3850    -1.0910 C          1 DCD       0.110000
     57 N8          -0.2210     4.6940     0.1600 N          1 DCD      -0.916300
     58 C36         -1.2340     6.7760    -0.8780 C          1 DCD      -0.162400
     59 C37         -2.5130     6.7280    -0.0920 C           1 DCD       0.648600
     60 O13         -2.7230     6.0380     0.8930 O           1 DCD      -0.561000
     61 O14         -3.4360     7.6000    -0.5350 O          1 DCD      -0.608100
     62 C38         -2.5070     2.1880    -3.7580 C          1 DCD      -0.057300
     63 S3          -1.1350     2.5210    -4.9430 S          1 DCD      -0.111100
     64 S4           0.3280     1.1380    -4.5150 S          1 DCD      -0.191600
     65 C39          1.3450     2.0250    -3.2720 C          1 DCD      -0.038300
     66 C40          2.8440     1.7100    -3.3580 C          1 DCD       0.057200
     67 C41          3.4950     2.3790    -4.5940 C           1 DCD       0.641600
     68 O15          3.1430     3.4640    -5.0570 O           1 DCD      -0.616100
     69 N9           4.6610     1.7780    -5.0240 N           1 DCD      -0.550900
     70 C42          5.5460     2.4570    -5.9760 C          1 DCD       0.023700
     71 C43          6.5050     1.4540    -6.6120 C          1 DCD      -0.171900
     72 C44          7.4190     2.0690    -7.6330 C           1 DCD       0.642100
     73 O16          8.4730     1.5870    -8.0160 O           1 DCD      -0.529000
     74 O17          6.9520     3.2000    -8.1880 O          1 DCD      -0.596600
     75 C45          6.3210     3.5500    -5.2160 C           1 DCD       0.618100
     76 O18          7.4930     3.4660    -4.8750 O           1 DCD      -0.520500
     77 O19          5.5530     4.6230    -4.8980 O          1 DCD      -0.565600
     78 N10          3.1510     0.2700    -3.2930 N           1 DCD      -0.550400
     79 C46          3.8010    -0.4530    -2.3380 C           1 DCD       0.651100
     80 O20          4.0060    -1.6540    -2.5470 O           1 DCD      -0.611600
     81 C47          4.1900     0.1720    -0.9780 C          1 DCD       0.043200
     82 C48          5.7060     0.1010    -0.7530 C          1 DCD      -0.166900
     83 C49          6.4540     0.9950    -1.7090 C           1 DCD       0.663600
     84 O21          5.8760     1.4830    -2.6860 O           1 DCD      -0.622600
     85 N11          7.7690     1.2980    -1.5550 N           1 DCD      -0.457600
     86 C50          8.7770     0.9020    -0.6550 C          1 DCD       0.052100
     87 C51          9.9900     1.5930    -0.7560 C          1 DCD      -0.149500
     88 C52         11.0660     1.2920     0.0840 C          1 DCD      -0.095500
     89 C53         10.9580     0.2800     1.0440 C          1 DCD      -0.049000
     90 C54         12.0280    -0.0370     1.8970 C          1 DCD      -0.098500
     91 C55         11.9210    -1.0580     2.8540 C          1 DCD      -0.037000
     92 C56         12.9900    -1.3770     3.7080 C          1 DCD      -0.116500
     93 C57         12.8690    -2.3960     4.6540 C          1 DCD      -0.126000
     94 C58         11.6790    -3.1100     4.7580 C          1 DCD      -0.123000
     95 C59         10.6080    -2.8050     3.9160 C          1 DCD      -0.119500
     96 C60         10.7140    -1.7810     2.9600 C          1 DCD      -0.027000
     97 C61          9.6450    -1.4610     2.1050 C          1 DCD      -0.111000
     98 C62          9.7490    -0.4370     1.1480 C          1 DCD      -0.016000
     99 C63          8.6740    -0.1170     0.2910 C          1 DCD      -0.156000
    100 N12          3.5050    -0.6730     0.0170 N           1 DCD      -0.552400
    101 C64          2.1420    -0.5030     0.2050 C           1 DCD       0.626600
    102 O22          1.5240     0.4440    -0.2750 O           1 DCD      -0.573600
    103 H1           3.8880    -3.5860     3.6560 H          1 DCD       0.372050
    104 H2           4.4390    -2.6850     4.8830 H          1 DCD       0.372050
    105 H3           2.1340    -3.3440     5.0930 H          1 DCD       0.099200
    106 H4           2.5040    -0.2860     4.7650 H          1 DCD       0.095450
    107 H5           3.0630    -1.1730     6.1860 H          1 DCD       0.095450
    108 H6          -0.2530    -1.9810     7.1000 H          1 DCD       0.462500
    109 H7           3.1340    -1.7940     2.2530 H          1 DCD       0.333000
    110 H8           0.4370    -1.2840     1.1760 H          1 DCD       0.094700
    111 H9           2.3340    -3.2860    -0.1920 H          1 DCD       0.104950
    112 H10          1.0150    -2.5160    -1.0510 H          1 DCD       0.104950
    113 H11         -1.5390    -1.8100     1.5550 H          1 DCD       0.104450
    114 H12         -2.1810    -3.3130     2.2400 H          1 DCD       0.104450
    115 H13         -4.3430    -2.9200     0.9860 H          1 DCD       0.120200
    116 H14         -4.0850    -3.1170     3.5040 H          1 DCD       0.342000
    117 H15         -4.6250    -2.4650     5.5300 H          1 DCD       0.106700
    118 H16         -3.1710     0.2010     5.3080 H          1 DCD       0.114200
    119 H17         -2.2810    -1.2220     4.7860 H          1 DCD       0.114200
    120 H18         -4.4630    -0.2850     7.4260 H          1 DCD       0.453500
    121 H19         -5.7020    -0.0900     3.3620 H          1 DCD       0.462000
    122 H20         -3.6090    -0.1520     0.3050 H          1 DCD       0.342500
    123 H21         -3.2290    -0.3740    -2.6740 H          1 DCD       0.094700
    124 H22         -5.2620     0.2610    -4.0240 H          1 DCD       0.094200
    125 H23         -5.0860    -1.4760    -3.8270 H          1 DCD       0.094200
    126 H24         -6.3470    -2.5880    -2.3320 H          1 DCD       0.349500
    127 H25         -7.5640    -4.2700    -1.4170 H          1 DCD       0.144000
    128 H26         -9.6320    -5.0910    -0.4060 H          1 DCD       0.137000
    129 H27        -11.9520    -4.6940     0.3480 H          1 DCD       0.135000
    130 H28        -14.2730    -4.2910     1.0980 H          1 DCD       0.132500
    131 H29        -16.1890    -2.7650     1.3670 H          1 DCD       0.133500
    132 H30        -16.0230    -0.4080     0.6110 H          1 DCD       0.133500
    133 H31        -13.9420     0.4220    -0.4140 H          1 DCD       0.133500
    134 H32        -11.6230     0.0200    -1.1650 H          1 DCD       0.137500
    135 H33         -9.3460    -0.3750    -1.9140 H          1 DCD       0.154500
    136 H34         -5.1640     1.1300    -0.9690 H          1 DCD       0.328500
    137 H35         -1.5900     1.1420    -2.0910 H          1 DCD       0.094700
    138 H36         -0.7880     2.9590    -0.8770 H          1 DCD       0.333000
    139 H37          0.2660     5.4940    -1.7070 H          1 DCD       0.099200
    140 H38          0.4020     5.3110     0.6830 H          1 DCD       0.372050
    141 H39         -1.0590     4.6270     0.7580 H          1 DCD       0.372050
    142 H40         -1.4370     7.2360    -1.8530 H          1 DCD       0.095450
    143 H41         -0.5330     7.4290    -0.3470 H          1 DCD       0.095450
    144 H42         -4.2220     7.4240     0.0240 H          1 DCD       0.462500
    145 H43         -3.2540     2.9750    -3.9120 H          1 DCD       0.104950
    146 H44         -2.9880     1.2740    -4.1140 H          1 DCD       0.104950
    147 H45          1.1940     3.1050    -3.3720 H          1 DCD       0.104450
    148 H46          0.9720     1.7250    -2.2920 H          1 DCD       0.104450
    149 H47          3.3230     2.2070    -2.5100 H          1 DCD       0.120200
    150 H48          5.1390     1.2660    -4.2770 H          1 DCD       0.342000
    151 H49          4.9350     2.9390    -6.7490 H          1 DCD       0.106700
    152 H50          7.1310     0.9890    -5.8410 H          1 DCD       0.114200
    153 H51          5.9380     0.6590    -7.1100 H          1 DCD       0.114200
    154 H52          7.6540     3.4580    -8.8260 H          1 DCD       0.453500
    155 H53          4.6050     4.4970    -5.1510 H          1 DCD       0.462000
    156 H54          2.9230    -0.2690    -4.1230 H          1 DCD       0.342500
    157 H55          3.8260     1.1940    -0.8650 H          1 DCD       0.094700
    158 H56          6.0600    -0.9260    -0.8960 H          1 DCD       0.094200
    159 H57          5.9150     0.4230     0.2720 H          1 DCD       0.094200
    160 H58          8.0600     1.9750    -2.2590 H          1 DCD       0.349500
    161 H59         10.1190     2.3890    -1.4880 H          1 DCD       0.144000
    162 H60         11.9900     1.8570    -0.0220 H          1 DCD       0.137000
    163 H61         12.9600     0.5190     1.8130 H          1 DCD       0.135000
    164 H62         13.9290    -0.8310     3.6420 H          1 DCD       0.132500
    165 H63         13.7050    -2.6320     5.3080 H          1 DCD       0.133500
    166 H64         11.5840    -3.9040     5.4930 H          1 DCD       0.133500
    167 H65          9.6870    -3.3750     4.0130 H          1 DCD       0.133500
    168 H66          8.7160    -2.0220     2.1900 H          1 DCD       0.137500
    169 H67          7.7800    -0.7160     0.3870 H          1 DCD       0.154500
    170 H68          3.8390    -1.6300     0.0620 H          1 DCD       0.328500
@<TRIPOS>BOND
     1     1     2 1   
     2     1   103 1   
     3     1   104 1   
     4     2     3 1   
     5     2     7 1   
     6     2   105 1   
     7     3     4 1   
     8     3   106 1   
     9     3   107 1   
    10     4     5 2   
    11     4     6 1   
    12     6   108 1   
    13     7     8 2   
    14     7     9 1   
    15     9    10 1   
    16     9   109 1   
    17    10    11 1   
    18    10   101 1   
    19    10   110 1   
    20    11    12 1   
    21    11   111 1   
    22    11   112 1   
    23    12    13 1   
    24    13    14 1   
    25    14    15 1   
    26    14   113 1   
    27    14   114 1   
    28    15    16 1   
    29    15    27 1   
    30    15   115 1   
    31    16    17 2   
    32    16    18 1   
    33    18    19 1   
    34    18   116 1   
    35    19    20 1   
    36    19    24 1   
    37    19   117 1   
    38    20    21 1   
    39    20   118 1   
    40    20   119 1   
    41    21    22 2   
    42    21    23 1   
    43    23   120 1   
    44    24    25 2   
    45    24    26 1   
    46    26   121 1   
    47    27    28 1   
    48    27   122 1   
    49    28    29 2   
    50    28    30 1   
    51    30    31 1   
    52    30    49 1   
    53    30   123 1   
    54    31    32 1   
    55    31   124 1   
    56    31   125 1   
    57    32    33 2   
    58    32    34 1   
    59    34    35 1   
    60    34   126 1   
    61    35    36 ar  
    62    35    48 ar  
    63    36    37 ar  
    64    36   127 1   
    65    37    38 ar  
    66    37   128 1   
    67    38    39 ar  
    68    38    47 ar  
    69    39    40 ar  
    70    39   129 1   
    71    40    41 ar  
    72    40    45 ar  
    73    41    42 ar  
    74    41   130 1   
    75    42    43 ar  
    76    42   131 1   
    77    43    44 ar  
    78    43   132 1   
    79    44    45 ar  
    80    44   133 1   
    81    45    46 ar  
    82    46    47 ar  
    83    46   134 1   
    84    47    48 ar  
    85    48   135 1   
    86    49    50 1   
    87    49   136 1   
    88    50    51 2   
    89    50    52 1   
    90    52    53 1   
    91    52    62 1   
    92    52   137 1   
    93    53    54 1   
    94    53   138 1   
    95    54    55 2   
    96    54    56 1   
    97    56    57 1   
    98    56    58 1   
    99    56   139 1   
   100    57   140 1   
   101    57   141 1   
   102    58    59 1   
   103    58   142 1   
   104    58   143 1   
   105    59    60 2   
   106    59    61 1   
   107    61   144 1   
   108    62    63 1   
   109    62   145 1   
   110    62   146 1   
   111    63    64 1   
   112    64    65 1   
   113    65    66 1   
   114    65   147 1   
   115    65   148 1   
   116    66    67 1   
   117    66    78 1   
   118    66   149 1   
   119    67    68 2   
   120    67    69 1   
   121    69    70 1   
   122    69   150 1   
   123    70    71 1   
   124    70    75 1   
   125    70   151 1   
   126    71    72 1   
   127    71   152 1   
   128    71   153 1   
   129    72    73 2   
   130    72    74 1   
   131    74   154 1   
   132    75    76 2   
   133    75    77 1   
   134    77   155 1   
   135    78    79 1   
   136    78   156 1   
   137    79    80 2   
   138    79    81 1   
   139    81    82 1   
   140    81   100 1   
   141    81   157 1   
   142    82    83 1   
   143    82   158 1   
   144    82   159 1   
   145    83    84 2   
   146    83    85 1   
   147    85    86 1   
   148    85   160 1   
   149    86    87 ar  
   150    86    99 ar  
   151    87    88 ar  
   152    87   161 1   
   153    88    89 ar  
   154    88   162 1   
   155    89    90 ar  
   156    89    98 ar  
   157    90    91 ar  
   158    90   163 1   
   159    91    92 ar  
   160    91    96 ar  
   161    92    93 ar  
   162    92   164 1   
   163    93    94 ar  
   164    93   165 1   
   165    94    95 ar  
   166    94   166 1   
   167    95    96 ar  
   168    95   167 1   
   169    96    97 ar  
   170    97    98 ar  
   171    97   168 1   
   172    98    99 ar  
   173    99   169 1   
   174   100   101 1   
   175   100   170 1   
   176   101   102 2   
@<TRIPOS>SUBSTRUCTURE
     1 DCD         1 TEMP              0 ****  ****    0 ROOT
