@<TRIPOS>MOLECULE
29
   84    94     1     0     0
SMALL
bcc


@<TRIPOS>ATOM
      1 O1           2.2110    -2.4920     3.8820 O           1 29       -0.602000
      2 C1           2.5140    -2.5780     2.6950 C           1 29        0.723100
      3 C2           2.1160    -1.5000     1.7620 C          1 29       -0.108100
      4 C3           1.3350    -0.4390     2.2330 C          1 29       -0.059500
      5 C4           0.9570     0.5810     1.3640 C          1 29       -0.059500
      6 C5           1.3560     0.5420     0.0230 C          1 29       -0.108100
      7 C6           0.9070     1.6080    -0.8980 C           1 29        0.723100
      8 O2           0.1000     2.4400    -0.4950 O           1 29       -0.602000
      9 N1           1.4210     1.5850    -2.1940 N           1 29       -0.490900
     10 C7           1.0760     2.7050    -3.0680 C          1 29        0.084000
     11 C8           2.0880     3.8510    -2.9330 C          1 29       -0.120400
     12 C9           1.5600     5.1780    -3.4830 C          1 29        0.049800
     13 N2           0.5330     5.7470    -2.6350 N          1 29        0.051400
     14 C10         -0.8140     5.6290    -2.7710 C          1 29       -0.207600
     15 C11         -1.3020     6.0060    -1.5360 C          1 29        0.226600
     16 C12         -2.6830     5.8750    -0.9860 C          1 29        0.074700
     17 N3          -2.8740     4.4920    -0.5530 N           1 29       -0.485900
     18 C13         -3.1820     3.5490    -1.5290 C           1 29        0.721850
     19 O3          -3.4360     3.8250    -2.7000 O           1 29       -0.595500
     20 C14         -3.1980     2.1290    -1.1130 C          1 29       -0.112100
     21 C15         -3.4230     1.1340    -2.0740 C          1 29       -0.062250
     22 C16         -3.4150    -0.2070    -1.7010 C          1 29       -0.062250
     23 C17         -3.1780    -0.5600    -0.3680 C          1 29       -0.112100
     24 C18         -3.1850    -1.9900     0.0160 C           1 29        0.721850
     25 O4          -3.4840    -2.8290    -0.8290 O           1 29       -0.595500
     26 N4          -2.8760    -2.2870     1.3400 N           1 29       -0.485900
     27 C19         -2.8120    -3.6930     1.7150 C          1 29        0.074700
     28 C20         -1.4150    -4.2090     1.6220 C          1 29        0.226600
     29 C21         -0.7720    -5.1200     2.4340 C          1 29       -0.207600
     30 N5           0.4550    -5.2720     1.8620 N          1 29        0.051400
     31 C22          1.5230    -6.1570     2.2840 C          1 29        0.049800
     32 C23          2.3370    -5.6080     3.4570 C          1 29       -0.120400
     33 C24          3.5480    -4.7560     3.0500 C          1 29        0.084000
     34 N6           3.2300    -3.6480     2.1590 N           1 29       -0.490900
     35 C25          3.6650    -3.7290     0.8350 C           1 29        0.723100
     36 O5           4.3220    -4.6650     0.3880 O           1 29       -0.602000
     37 C26          3.3050    -2.6050    -0.0620 C          1 29       -0.108100
     38 C27          3.7310    -2.6240    -1.3960 C          1 29       -0.059500
     39 C28          3.3900    -1.5800    -2.2530 C          1 29       -0.059500
     40 C29          2.6050    -0.5200    -1.7830 C          1 29       -0.108100
     41 C30          2.2720     0.6010    -2.6930 C           1 29        0.723100
     42 O6           2.7530     0.6280    -3.8220 O           1 29       -0.602000
     43 C31          2.1590    -0.4980    -0.4560 C          1 29       -0.002000
     44 C32          2.5310    -1.5460     0.4250 C          1 29       -0.002000
     45 N7           0.5740    -4.5130     0.7600 N          1 29       -0.172300
     46 N8          -0.5590    -3.8410     0.6110 N          1 29       -0.340500
     47 C33         -2.6540    -1.3440     2.3380 C           1 29        0.721850
     48 O7          -2.4300    -1.6270     3.5120 O           1 29       -0.595500
     49 C34         -2.7100     0.0820     1.9390 C          1 29       -0.112100
     50 C35         -2.5050     1.0780     2.9020 C          1 29       -0.062250
     51 C36         -2.5200     2.4210     2.5290 C          1 29       -0.062250
     52 C37         -2.7410     2.7760     1.1920 C          1 29       -0.112100
     53 C38         -2.7180     4.2060     0.8010 C           1 29        0.721850
     54 O8          -2.5990     5.0570     1.6780 O           1 29       -0.595500
     55 C39         -2.9660     1.7900     0.2240 C          1 29       -0.007500
     56 C40         -2.9520     0.4220     0.6030 C          1 29       -0.007500
     57 N9          -0.2620     6.4740    -0.7740 N          1 29       -0.340500
     58 N10          0.8590     6.3270    -1.4680 N          1 29       -0.172300
     59 H1           1.0170    -0.4070     3.2740 H          1 29        0.173250
     60 H2           0.3590     1.4090     1.7390 H          1 29        0.173250
     61 H3           0.0630     3.0320    -2.8190 H          1 29        0.075200
     62 H4           1.0450     2.3640    -4.1100 H          1 29        0.075200
     63 H5           3.0020     3.5770    -3.4740 H          1 29        0.074450
     64 H6           2.3780     3.9760    -1.8820 H          1 29        0.074450
     65 H7           1.1430     5.0550    -4.4880 H          1 29        0.076200
     66 H8           2.3700     5.9150    -3.5410 H          1 29        0.076200
     67 H9          -1.2890     5.1920    -3.6380 H          1 29        0.199000
     68 H10         -2.8240     6.5720    -0.1540 H          1 29        0.092700
     69 H11         -3.4190     6.1250    -1.7580 H          1 29        0.092700
     70 H12         -3.6040     1.4010    -3.1140 H          1 29        0.174000
     71 H13         -3.5920    -0.9750    -2.4540 H          1 29        0.174000
     72 H14         -3.4570    -4.2930     1.0630 H          1 29        0.092700
     73 H15         -3.1870    -3.8160     2.7380 H          1 29        0.092700
     74 H16         -1.0770    -5.6530     3.3220 H          1 29        0.199000
     75 H17          2.1500    -6.3880     1.4170 H          1 29        0.076200
     76 H18          1.0340    -7.0900     2.5880 H          1 29        0.076200
     77 H19          2.7230    -6.4570     4.0350 H          1 29        0.074450
     78 H20          1.6900    -5.0430     4.1390 H          1 29        0.074450
     79 H21          4.0030    -4.3400     3.9580 H          1 29        0.075200
     80 H22          4.3040    -5.4080     2.5980 H          1 29        0.075200
     81 H23          4.3300    -3.4530    -1.7720 H          1 29        0.173250
     82 H24          3.7350    -1.5980    -3.2860 H          1 29        0.173250
     83 H25         -2.3190     0.8130     3.9420 H          1 29        0.174000
     84 H26         -2.3450     3.1910     3.2800 H          1 29        0.174000
@<TRIPOS>BOND
     1     1     2 2   
     2     2     3 1   
     3     2    34 1   
     4     3     4 ar  
     5     3    44 ar  
     6     4     5 ar  
     7     4    59 1   
     8     5     6 ar  
     9     5    60 1   
    10     6     7 1   
    11     6    43 ar  
    12     7     8 2   
    13     7     9 1   
    14     9    10 1   
    15     9    41 1   
    16    10    11 1   
    17    10    61 1   
    18    10    62 1   
    19    11    12 1   
    20    11    63 1   
    21    11    64 1   
    22    12    13 1   
    23    12    65 1   
    24    12    66 1   
    25    13    14 1   
    26    13    58 1   
    27    14    15 2   
    28    14    67 1   
    29    15    16 1   
    30    15    57 1   
    31    16    17 1   
    32    16    68 1   
    33    16    69 1   
    34    17    18 1   
    35    17    53 1   
    36    18    19 2   
    37    18    20 1   
    38    20    21 ar  
    39    20    55 ar  
    40    21    22 ar  
    41    21    70 1   
    42    22    23 ar  
    43    22    71 1   
    44    23    24 1   
    45    23    56 ar  
    46    24    25 2   
    47    24    26 1   
    48    26    27 1   
    49    26    47 1   
    50    27    28 1   
    51    27    72 1   
    52    27    73 1   
    53    28    29 2   
    54    28    46 1   
    55    29    30 1   
    56    29    74 1   
    57    30    31 1   
    58    30    45 1   
    59    31    32 1   
    60    31    75 1   
    61    31    76 1   
    62    32    33 1   
    63    32    77 1   
    64    32    78 1   
    65    33    34 1   
    66    33    79 1   
    67    33    80 1   
    68    34    35 1   
    69    35    36 2   
    70    35    37 1   
    71    37    38 ar  
    72    37    44 ar  
    73    38    39 ar  
    74    38    81 1   
    75    39    40 ar  
    76    39    82 1   
    77    40    41 1   
    78    40    43 ar  
    79    41    42 2   
    80    43    44 ar  
    81    45    46 2   
    82    47    48 2   
    83    47    49 1   
    84    49    50 ar  
    85    49    56 ar  
    86    50    51 ar  
    87    50    83 1   
    88    51    52 ar  
    89    51    84 1   
    90    52    53 1   
    91    52    55 ar  
    92    53    54 2   
    93    55    56 ar  
    94    57    58 2   
@<TRIPOS>SUBSTRUCTURE
     1 29          1 TEMP              0 ****  ****    0 ROOT
