@<TRIPOS>MOLECULE
-args
  114   128     1     0     0
SMALL
bcc


@<TRIPOS>ATOM
      1 O1          -3.7720    -0.9530     4.0770 O           1 -arg     -0.586750
      2 C1          -3.6630    -0.1970     3.1170 C           1 -arg      0.713350
      3 C2          -3.6230    -0.7940     1.7640 C          1 -arg     -0.115100
      4 C3          -3.5070    -2.1830     1.6250 C          1 -arg     -0.062500
      5 C4          -3.4610    -2.7550     0.3560 C          1 -arg     -0.060000
      6 C5          -3.5510    -1.9420    -0.7800 C          1 -arg     -0.117350
      7 C6          -3.4490    -2.5520    -2.1260 C           1 -arg      0.714850
      8 O2          -3.3560    -3.7720    -2.2100 O           1 -arg     -0.588000
      9 N1          -3.4620    -1.6860    -3.2200 N           1 -arg     -0.489900
     10 C7          -3.8810    -0.3590    -3.1240 C           1 -arg      0.714850
     11 O3          -4.2960     0.3080    -4.0670 O           1 -arg     -0.588000
     12 C8          -3.8460     0.2550    -1.7780 C          1 -arg     -0.117350
     13 C9          -3.9730     1.6420    -1.6410 C          1 -arg     -0.060000
     14 C10         -3.9440     2.2220    -0.3730 C          1 -arg     -0.062500
     15 C11         -3.8110     1.4160     0.7650 C          1 -arg     -0.115100
     16 C12         -3.7500     2.0420     2.1080 C           1 -arg      0.713350
     17 O4          -3.8480     3.2620     2.1870 O           1 -arg     -0.586750
     18 N2          -3.5810     1.1950     3.2030 N           1 -arg     -0.486900
     19 C13         -3.4770     1.7790     4.5630 C          1 -arg      0.085700
     20 C14         -4.7990     2.4210     5.0230 C          1 -arg     -0.092900
     21 C15         -4.6960     2.9180     6.4650 C          1 -arg     -0.078400
     22 C16         -3.5200     3.8710     6.6590 C          1 -arg     -0.078400
     23 C17         -2.1990     3.2590     6.1940 C          1 -arg     -0.092900
     24 C18         -2.2880     2.7810     4.7320 C          1 -arg      0.085700
     25 N3          -0.9850     2.2710     4.2400 N           1 -arg     -0.486900
     26 C19         -0.5500     1.0120     4.6440 C           1 -arg      0.713350
     27 O5          -1.0770     0.3350     5.5180 O           1 -arg     -0.586750
     28 C20          0.6510     0.4760     3.9690 C          1 -arg     -0.115100
     29 C21          0.9600    -0.8850     4.0780 C          1 -arg     -0.062500
     30 C22          2.0850    -1.3950     3.4320 C          1 -arg     -0.060000
     31 C23          2.9200    -0.5390     2.7010 C          1 -arg     -0.117350
     32 C24          4.0820    -1.0950     1.9690 C           1 -arg      0.714850
     33 O6           4.3110    -2.2970     2.0590 O           1 -arg     -0.588000
     34 N4           4.8420    -0.2040     1.2090 N           1 -arg     -0.489900
     35 C25          4.7480     1.1820     1.3560 C           1 -arg      0.714850
     36 O7           5.6330     1.9740     1.0490 O           1 -arg     -0.588000
     37 C26          3.5000     1.7030     1.9570 C          1 -arg     -0.117350
     38 C27          3.1990     3.0670     1.8670 C          1 -arg     -0.060000
     39 C28          2.0230     3.5590     2.4330 C          1 -arg     -0.062500
     40 C29          1.1580     2.6940     3.1140 C          1 -arg     -0.115100
     41 C30         -0.1140     3.2080     3.6750 C           1 -arg      0.713350
     42 O8          -0.3310     4.4150     3.6280 O           1 -arg     -0.586750
     43 C31          1.4690     1.3370     3.2360 C          1 -arg     -0.011000
     44 C32          2.6400     0.8270     2.6220 C          1 -arg     -0.010000
     45 C33          5.9770    -0.7680     0.4380 C          1 -arg      0.086700
     46 C34          7.3050    -0.6230     1.2060 C          1 -arg     -0.092900
     47 C35          8.4850    -1.1900     0.4240 C          1 -arg     -0.078400
     48 C36          8.5840    -0.5690    -0.9640 C          1 -arg     -0.078400
     49 C37          7.2960    -0.7770    -1.7540 C          1 -arg     -0.094400
     50 C38          6.0730    -0.2060    -1.0140 C          1 -arg      0.102700
     51 N5           4.8280    -0.4280    -1.7730 N           1 -arg     -0.516400
     52 C39          3.8800     0.5440    -1.9520 C           1 -arg      0.716600
     53 O9           3.8580     1.7000    -1.5780 O           1 -arg     -0.547500
     54 C40          2.7670    -0.0700    -2.6640 C          1 -arg     -0.126350
     55 C41          1.5880     0.4990    -3.1110 C          1 -arg     -0.012500
     56 C42          0.7320    -0.3830    -3.7450 C          1 -arg     -0.126350
     57 C43         -0.5860    -0.1450    -4.3200 C           1 -arg      0.716600
     58 O10         -1.1540     0.9250    -4.2330 O           1 -arg     -0.547500
     59 N6          -1.0030    -1.3280    -4.8690 N           1 -arg     -0.516400
     60 C44         -0.1130    -2.3380    -4.6080 C           1 -arg      0.716600
     61 O11         -0.1940    -3.5260    -4.8490 O           1 -arg     -0.547500
     62 C45          1.0260    -1.7360    -3.9130 C          1 -arg     -0.126350
     63 C46          2.2020    -2.3070    -3.4520 C          1 -arg     -0.012500
     64 C47          3.0660    -1.4220    -2.8240 C          1 -arg     -0.126350
     65 C48          4.3720    -1.6470    -2.2050 C           1 -arg      0.716600
     66 O12          4.8770    -2.7470    -2.1020 O           1 -arg     -0.547500
     67 C49         -2.3280    -1.5040    -5.4870 C          1 -arg      0.102700
     68 C50         -2.2200    -2.1670    -6.8720 C          1 -arg     -0.094400
     69 C51         -3.5910    -2.3620    -7.5140 C          1 -arg     -0.078400
     70 C52         -4.5130    -3.1780    -6.6150 C          1 -arg     -0.078400
     71 C53         -4.6660    -2.5380    -5.2390 C          1 -arg     -0.092900
     72 C54         -3.3030    -2.2950    -4.5630 C          1 -arg      0.086700
     73 C55         -3.7080     0.0300     0.6390 C          1 -arg     -0.011000
     74 C56         -3.6980    -0.5590    -0.6530 C          1 -arg     -0.010000
     75 H1          -3.4460    -2.8230     2.5050 H          1 -arg      0.175750
     76 H2          -3.3540    -3.8350     0.2580 H          1 -arg      0.176250
     77 H3          -4.0800     2.2740    -2.5220 H          1 -arg      0.176250
     78 H4          -4.0260     3.3050    -0.2780 H          1 -arg      0.175750
     79 H5          -3.3090     0.9540     5.2620 H          1 -arg      0.118700
     80 H6          -5.6140     1.6910     4.9480 H          1 -arg      0.060200
     81 H7          -5.0730     3.2610     4.3760 H          1 -arg      0.060200
     82 H8          -5.6280     3.4230     6.7460 H          1 -arg      0.048450
     83 H9          -4.5830     2.0600     7.1390 H          1 -arg      0.048450
     84 H10         -3.4430     4.1480     7.7160 H          1 -arg      0.048450
     85 H11         -3.7070     4.7970     6.1010 H          1 -arg      0.048450
     86 H12         -1.4000     4.0020     6.3000 H          1 -arg      0.060200
     87 H13         -1.9350     2.4240     6.8550 H          1 -arg      0.060200
     88 H14         -2.5200     3.6710     4.1360 H          1 -arg      0.118700
     89 H15          0.3200    -1.5520     4.6550 H          1 -arg      0.175750
     90 H16          2.3090    -2.4590     3.5030 H          1 -arg      0.176250
     91 H17          3.8700     3.7450     1.3400 H          1 -arg      0.176250
     92 H18          1.7850     4.6180     2.3390 H          1 -arg      0.175750
     93 H19          5.7980    -1.8460     0.3350 H          1 -arg      0.110700
     94 H20          7.2300    -1.1340     2.1730 H          1 -arg      0.061950
     95 H21          7.5120     0.4290     1.4320 H          1 -arg      0.061950
     96 H22          9.4130    -1.0070     0.9770 H          1 -arg      0.049450
     97 H23          8.3770    -2.2780     0.3350 H          1 -arg      0.049450
     98 H24          8.7950     0.5030    -0.8760 H          1 -arg      0.049200
     99 H25          9.4240    -1.0170    -1.5070 H          1 -arg      0.049200
    100 H26          7.1750    -1.8500    -1.9410 H          1 -arg      0.058700
    101 H27          7.3880    -0.3010    -2.7370 H          1 -arg      0.058700
    102 H28          6.2200     0.8790    -0.9730 H          1 -arg      0.111700
    103 H29          1.3550     1.5500    -2.9790 H          1 -arg      0.184500
    104 H30          2.4280    -3.3600    -3.5700 H          1 -arg      0.184500
    105 H31         -2.7290    -0.4980    -5.6600 H          1 -arg      0.111700
    106 H32         -1.5920    -1.5520    -7.5280 H          1 -arg      0.058700
    107 H33         -1.7270    -3.1430    -6.8000 H          1 -arg      0.058700
    108 H34         -3.4750    -2.8680    -8.4790 H          1 -arg      0.049200
    109 H35         -4.0440    -1.3840    -7.7170 H          1 -arg      0.049200
    110 H36         -5.4970    -3.2740    -7.0880 H          1 -arg      0.049450
    111 H37         -4.1130    -4.1940    -6.5040 H          1 -arg      0.049450
    112 H38         -5.2180    -1.5980    -5.3510 H          1 -arg      0.061950
    113 H39         -5.2850    -3.1840    -4.6050 H          1 -arg      0.061950
    114 H40         -2.8520    -3.2850    -4.4200 H          1 -arg      0.110700
@<TRIPOS>BOND
     1     1     2 2   
     2     2     3 1   
     3     2    18 1   
     4     3     4 ar  
     5     3    73 ar  
     6     4     5 ar  
     7     4    75 1   
     8     5     6 ar  
     9     5    76 1   
    10     6     7 1   
    11     6    74 ar  
    12     7     8 2   
    13     7     9 1   
    14     9    10 1   
    15     9    72 1   
    16    10    11 2   
    17    10    12 1   
    18    12    13 ar  
    19    12    74 ar  
    20    13    14 ar  
    21    13    77 1   
    22    14    15 ar  
    23    14    78 1   
    24    15    16 1   
    25    15    73 ar  
    26    16    17 2   
    27    16    18 1   
    28    18    19 1   
    29    19    20 1   
    30    19    24 1   
    31    19    79 1   
    32    20    21 1   
    33    20    80 1   
    34    20    81 1   
    35    21    22 1   
    36    21    82 1   
    37    21    83 1   
    38    22    23 1   
    39    22    84 1   
    40    22    85 1   
    41    23    24 1   
    42    23    86 1   
    43    23    87 1   
    44    24    25 1   
    45    24    88 1   
    46    25    26 1   
    47    25    41 1   
    48    26    27 2   
    49    26    28 1   
    50    28    29 ar  
    51    28    43 ar  
    52    29    30 ar  
    53    29    89 1   
    54    30    31 ar  
    55    30    90 1   
    56    31    32 1   
    57    31    44 ar  
    58    32    33 2   
    59    32    34 1   
    60    34    35 1   
    61    34    45 1   
    62    35    36 2   
    63    35    37 1   
    64    37    38 ar  
    65    37    44 ar  
    66    38    39 ar  
    67    38    91 1   
    68    39    40 ar  
    69    39    92 1   
    70    40    41 1   
    71    40    43 ar  
    72    41    42 2   
    73    43    44 ar  
    74    45    46 1   
    75    45    50 1   
    76    45    93 1   
    77    46    47 1   
    78    46    94 1   
    79    46    95 1   
    80    47    48 1   
    81    47    96 1   
    82    47    97 1   
    83    48    49 1   
    84    48    98 1   
    85    48    99 1   
    86    49    50 1   
    87    49   100 1   
    88    49   101 1   
    89    50    51 1   
    90    50   102 1   
    91    51    52 1   
    92    51    65 1   
    93    52    53 2   
    94    52    54 1   
    95    54    55 ar  
    96    54    64 ar  
    97    55    56 ar  
    98    55   103 1   
    99    56    57 1   
   100    56    62 ar  
   101    57    58 2   
   102    57    59 1   
   103    59    60 1   
   104    59    67 1   
   105    60    61 2   
   106    60    62 1   
   107    62    63 ar  
   108    63    64 ar  
   109    63   104 1   
   110    64    65 1   
   111    65    66 2   
   112    67    68 1   
   113    67    72 1   
   114    67   105 1   
   115    68    69 1   
   116    68   106 1   
   117    68   107 1   
   118    69    70 1   
   119    69   108 1   
   120    69   109 1   
   121    70    71 1   
   122    70   110 1   
   123    70   111 1   
   124    71    72 1   
   125    71   112 1   
   126    71   113 1   
   127    72   114 1   
   128    73    74 ar  
@<TRIPOS>SUBSTRUCTURE
     1 -arg        1 TEMP              0 ****  ****    0 ROOT
