@<TRIPOS>MOLECULE
164
   72    78     1     0     0
SMALL
bcc


@<TRIPOS>ATOM
      1 C           -4.8080     2.6150     0.5530 C          0 164       0.039100
      2 C1          -5.3510     1.3060     0.0460 C          0 164      -0.165800
      3 C2          -4.9760     0.1050     0.6200 C          0 164      -0.091000
      4 C3          -5.4820    -1.0840     0.1380 C          0 164      -0.165800
      5 C4          -5.0670    -2.4100     0.7340 C          0 164       0.039100
      6 N           -3.6280    -2.5950     0.5440 N          0 164       0.047400
      7 C5          -2.8540    -2.7450     1.6010 C          0 164      -0.013300
      8 C6          -1.4810    -2.8360     1.4820 C          0 164      -0.128500
      9 C7          -0.9200    -2.7770     0.2040 C          0 164       0.036000
     10 C8          -1.7830    -2.7130    -0.8940 C          0 164      -0.128500
     11 C9          -3.1440    -2.6240    -0.6860 C          0 164      -0.013300
     12 C10          0.5500    -2.7270     0.0020 C          0 164       0.036000
     13 C11          1.4300    -2.6460     1.0810 C          0 164      -0.128500
     14 C12          2.7870    -2.5860     0.8390 C          0 164      -0.013300
     15 N1           3.2560    -2.5910    -0.3930 N          0 164       0.047400
     16 C13          4.6850    -2.5650    -0.6430 C          0 164       0.039100
     17 C14          5.3760    -1.2950    -0.2540 C          0 164      -0.165800
     18 C15          6.6130    -1.4010     0.3670 C          0 164      -0.056500
     19 C16          7.3100    -0.2680     0.7310 C          0 164      -0.095000
     20 C17          6.7740     0.9780     0.4770 C          0 164      -0.056500
     21 C18          5.5330     1.0960    -0.1350 C          0 164      -0.165800
     22 C19          5.0120     2.4740    -0.4090 C          0 164       0.039100
     23 N2           3.5620     2.5750    -0.2800 N          0 164       0.047400
     24 C20          3.0380     2.8060     0.9070 C          0 164      -0.013300
     25 C21          1.6740     2.8970     1.0820 C          0 164      -0.128500
     26 C22          0.8420     2.7400    -0.0310 C          0 164       0.036000
     27 C23          1.4430     2.5450    -1.2790 C          0 164      -0.128500
     28 C24          2.8170     2.4660    -1.3640 C          0 164      -0.013300
     29 C25         -0.6330     2.7430     0.1190 C          0 164       0.036000
     30 C26         -1.4700     2.6270    -0.9970 C          0 164      -0.128500
     31 C27         -2.8370     2.6000    -0.8100 C          0 164      -0.013300
     32 N3          -3.3560     2.6820     0.3930 N          0 164       0.047400
     33 C28         -2.6110     2.8300     1.4710 C          0 164      -0.013300
     34 C29         -1.2350     2.8610     1.3780 C          0 164      -0.128500
     35 C30          4.8400    -0.0470    -0.4940 C          0 164      -0.091000
     36 C31          2.4500    -2.6660    -1.4420 C          0 164      -0.013300
     37 C32          1.0830    -2.7340    -1.2910 C          0 164      -0.128500
     38 C33         -6.3960    -1.0790    -0.9010 C          0 164      -0.056500
     39 C34         -6.7790     0.1170    -1.4800 C          0 164      -0.095000
     40 C35         -6.2530     1.3090    -1.0090 C          0 164      -0.056500
     41 H           -5.2670     3.4320    -0.0030 H          0 164       0.131700
     42 H1          -5.0560     2.7200     1.6100 H          0 164       0.131700
     43 H2          -4.2830     0.0990     1.4480 H          0 164       0.122500
     44 H3          -5.2970    -2.4190     1.7990 H          0 164       0.131700
     45 H4          -5.6060    -3.2170     0.2380 H          0 164       0.131700
     46 H5          -3.3040    -2.8000     2.5810 H          0 164       0.232750
     47 H6          -0.8570    -2.9490     2.3560 H          0 164       0.205250
     48 H7          -1.3870    -2.7330    -1.8980 H          0 164       0.205250
     49 H8          -3.8160    -2.5770    -1.5300 H          0 164       0.232750
     50 H9           1.0540    -2.6290     2.0930 H          0 164       0.205250
     51 H10          3.4750    -2.5350     1.6700 H          0 164       0.232750
     52 H11          5.1440    -3.3880    -0.0940 H          0 164       0.131700
     53 H12          4.8500    -2.7340    -1.7070 H          0 164       0.131700
     54 H13          7.0310    -2.3760     0.5670 H          0 164       0.176000
     55 H14          8.2720    -0.3560     1.2140 H          0 164       0.200000
     56 H15          7.3230     1.8660     0.7550 H          0 164       0.176000
     57 H16          5.4750     3.1700     0.2910 H          0 164       0.131700
     58 H17          5.2940     2.7610    -1.4220 H          0 164       0.131700
     59 H18          3.6900     2.9280     1.7590 H          0 164       0.232750
     60 H19          1.2560     3.0840     2.0600 H          0 164       0.205250
     61 H20          0.8360     2.4550    -2.1670 H          0 164       0.205250
     62 H21          3.2870     2.3160    -2.3250 H          0 164       0.232750
     63 H22         -1.0520     2.5570    -1.9900 H          0 164       0.205250
     64 H23         -3.4890     2.5140    -1.6670 H          0 164       0.232750
     65 H24         -3.0820     2.9240     2.4380 H          0 164       0.232750
     66 H25         -0.6310     2.9820     2.2650 H          0 164       0.205250
     67 H26          3.8720     0.0400    -0.9670 H          0 164       0.122500
     68 H27          2.8740    -2.6730    -2.4350 H          0 164       0.232750
     69 H28          0.4360    -2.7910    -2.1540 H          0 164       0.205250
     70 H29         -6.8090    -2.0100    -1.2610 H          0 164       0.176000
     71 H30         -7.4870     0.1220    -2.2960 H          0 164       0.200000
     72 H31         -6.5450     2.2440    -1.4650 H          0 164       0.176000
@<TRIPOS>BOND
     1     1     2 1   
     2     1    32 1   
     3     1    41 1   
     4     1    42 1   
     5     2     3 ar  
     6     2    40 ar  
     7     3     4 ar  
     8     3    43 1   
     9     4     5 1   
    10     4    38 ar  
    11     5     6 1   
    12     5    44 1   
    13     5    45 1   
    14     6     7 1   
    15     6    11 1   
    16     7     8 2   
    17     7    46 1   
    18     8     9 1   
    19     8    47 1   
    20     9    10 1   
    21     9    12 2   
    22    10    11 2   
    23    10    48 1   
    24    11    49 1   
    25    12    13 1   
    26    12    37 1   
    27    13    14 2   
    28    13    50 1   
    29    14    15 1   
    30    14    51 1   
    31    15    16 1   
    32    15    36 1   
    33    16    17 1   
    34    16    52 1   
    35    16    53 1   
    36    17    18 ar  
    37    17    35 ar  
    38    18    19 ar  
    39    18    54 1   
    40    19    20 ar  
    41    19    55 1   
    42    20    21 ar  
    43    20    56 1   
    44    21    22 1   
    45    21    35 ar  
    46    22    23 1   
    47    22    57 1   
    48    22    58 1   
    49    23    24 1   
    50    23    28 1   
    51    24    25 2   
    52    24    59 1   
    53    25    26 1   
    54    25    60 1   
    55    26    27 1   
    56    26    29 2   
    57    27    28 2   
    58    27    61 1   
    59    28    62 1   
    60    29    30 1   
    61    29    34 1   
    62    30    31 2   
    63    30    63 1   
    64    31    32 1   
    65    31    64 1   
    66    32    33 1   
    67    33    34 2   
    68    33    65 1   
    69    34    66 1   
    70    35    67 1   
    71    36    37 2   
    72    36    68 1   
    73    37    69 1   
    74    38    39 ar  
    75    38    70 1   
    76    39    40 ar  
    77    39    71 1   
    78    40    72 1   
@<TRIPOS>SUBSTRUCTURE
     1 164         1 TEMP              0 ****  ****    0 ROOT
