@<TRIPOS>MOLECULE
DCD
  178   182     1     0     0
SMALL
bcc


@<TRIPOS>ATOM
      1 N1          -1.2680     1.9390    -0.6920 N          1 DCD      -0.921800
      2 C1          -2.0450     2.3620     0.4910 C          1 DCD       0.136000
      3 C2          -1.2640     3.1830     1.5140 C          1 DCD      -0.145900
      4 C3          -0.1070     2.4370     2.1110 C           1 DCD       0.647100
      5 O1           0.8690     2.0300     1.4980 O           1 DCD      -0.581500
      6 O2          -0.2340     2.2610     3.4390 O          1 DCD      -0.594100
      7 C4          -2.7620     1.1580     1.1380 C           1 DCD       0.634100
      8 O3          -3.3040     1.2250     2.2390 O           1 DCD      -0.642600
      9 N2          -2.8630     0.0370     0.3330 N           1 DCD      -0.554400
     10 C5          -3.5770    -1.1520     0.7890 C          1 DCD       0.043700
     11 C6          -2.7600    -2.0110     1.7760 C          1 DCD      -0.050800
     12 S1          -1.3930    -3.0400     1.0990 S          1 DCD      -0.159100
     13 S2           0.0560    -1.7100     0.5350 S          1 DCD      -0.148600
     14 C7           0.7490    -1.1820     2.1410 C          1 DCD      -0.041800
     15 C8           2.2380    -0.7880     2.0910 C          1 DCD       0.053700
     16 C9           2.5730     0.0570     3.3460 C           1 DCD       0.645100
     17 O4           1.7070     0.5490     4.0730 O           1 DCD      -0.615100
     18 N3           3.9190     0.2350     3.5970 N           1 DCD      -0.556400
     19 C10          4.3790     0.6580     4.9240 C          1 DCD       0.049700
     20 C11          4.3070    -0.4780     5.9500 C          1 DCD      -0.160900
     21 C12          5.3590    -1.5370     5.7710 C           1 DCD       0.630100
     22 O5           5.8460    -2.2040     6.6700 O           1 DCD      -0.512000
     23 O6           5.6760    -1.7770     4.4860 O          1 DCD      -0.595600
     24 C13          5.7650     1.3110     4.9200 C           1 DCD       0.611600
     25 O7           6.5040     1.3400     5.8970 O           1 DCD      -0.537000
     26 O8           6.0720     1.9660     3.7840 O          1 DCD      -0.585100
     27 N4           2.6060    -0.0190     0.9040 N           1 DCD      -0.539900
     28 C14          3.9020    -0.0300     0.4400 C           1 DCD       0.668100
     29 O9           4.7660    -0.7460     0.9460 O           1 DCD      -0.626600
     30 C15          4.2060     0.8760    -0.7660 C          1 DCD       0.056200
     31 C16          3.8670     2.3380    -0.4920 C          1 DCD      -0.180900
     32 C17          4.8450     2.8630     0.5300 C           1 DCD       0.672600
     33 O10          4.6750     2.6820     1.7330 O           1 DCD      -0.662600
     34 N5           5.9390     3.4840    -0.0220 N           1 DCD      -0.547400
     35 C18          7.0070     4.0800     0.7670 C          1 DCD       0.081500
     36 C19          8.3720     3.4400     0.4890 C          1 DCD      -0.055600
     37 C20          8.5900     2.1550     1.2490 C          1 DCD      -0.090300
     38 C21          9.2910     2.1630     2.4590 C          1 DCD      -0.132000
     39 C22          9.4590     0.9850     3.1930 C          1 DCD      -0.119500
     40 C23          8.9200    -0.2350     2.7530 C          1 DCD      -0.032000
     41 C24          9.0650    -1.4690     3.5520 C          1 DCD      -0.041500
     42 C25          8.9260    -1.4500     4.9520 C          1 DCD      -0.118500
     43 C26          9.0400    -2.6200     5.7100 C          1 DCD      -0.131750
     44 C27          9.2980    -3.8340     5.0840 C          1 DCD      -0.127000
     45 C28          9.4480    -3.8800     3.7010 C          1 DCD      -0.131750
     46 C29          9.3340    -2.7090     2.9450 C          1 DCD      -0.118500
     47 C30          8.2220    -0.2290     1.5330 C          1 DCD      -0.119500
     48 C31          8.0680     0.9450     0.7860 C          1 DCD      -0.132000
     49 N6           3.5380     0.3540    -1.9550 N           1 DCD      -0.561900
     50 C32          3.9630     0.7220    -3.2160 C           1 DCD       0.652600
     51 O11          4.8030     1.6050    -3.3860 O           1 DCD      -0.595600
     52 C33          3.2370     0.0540    -4.3950 C          1 DCD       0.043700
     53 N7           2.9380    -1.3470    -4.1030 N           1 DCD      -0.554400
     54 C34          2.6130    -2.2320    -5.1060 C           1 DCD       0.634100
     55 O12          2.2960    -1.8600    -6.2350 O           1 DCD      -0.642600
     56 C35          2.6490    -3.7290    -4.6980 C          1 DCD       0.136000
     57 N8           2.8810    -4.5330    -5.9180 N          1 DCD      -0.921800
     58 C36          1.3440    -4.1160    -4.0060 C          1 DCD      -0.145900
     59 C37          1.3190    -3.6260    -2.5840 C           1 DCD       0.647100
     60 O13          2.1910    -2.9910    -2.0120 O           1 DCD      -0.581500
     61 O14          0.1670    -3.9630    -1.9730 O          1 DCD      -0.594100
     62 C38          2.0480     0.9120    -4.8610 C          1 DCD      -0.050800
     63 S3           0.7490     1.2940    -3.6200 S          1 DCD      -0.159100
     64 S4          -0.2100    -0.4990    -3.3400 S          1 DCD      -0.148600
     65 C39         -1.4390    -0.5240    -4.6950 C          1 DCD      -0.041800
     66 C40         -2.6390     0.3860    -4.3980 C          1 DCD       0.053700
     67 C41         -3.5250     0.4250    -5.6530 C           1 DCD       0.645100
     68 O15         -3.8440    -0.6220    -6.2240 O           1 DCD      -0.615100
     69 N9          -4.0310     1.6010    -6.1230 N           1 DCD      -0.556400
     70 C42         -4.1850     2.8880    -5.4250 C          1 DCD       0.049700
     71 C43         -4.0880     4.0710    -6.3950 C          1 DCD      -0.160900
     72 C44         -5.2460     4.1050    -7.3580 C           1 DCD       0.630100
     73 O16         -5.8940     3.1240    -7.6890 O           1 DCD      -0.512000
     74 O17         -5.4770     5.3300    -7.8760 O          1 DCD      -0.595600
     75 C45         -5.4820     3.0060    -4.6110 C           1 DCD       0.611600
     76 O18         -5.8720     4.0370    -4.0810 O           1 DCD      -0.537000
     77 O19         -6.1420     1.8420    -4.4650 O          1 DCD      -0.585100
     78 N10         -3.4820    -0.1710    -3.3350 N           1 DCD      -0.539900
     79 C46         -4.1310     0.6260    -2.4160 C           1 DCD       0.668100
     80 O20         -3.8540     1.8150    -2.2760 O           1 DCD      -0.626600
     81 C47         -5.3050    -0.0770    -1.7000 C          1 DCD       0.056200
     82 C48         -5.8960     0.7490    -0.5610 C          1 DCD      -0.180900
     83 C49         -6.9000     1.7730    -1.0500 C           1 DCD       0.672600
     84 O21         -7.3340     1.7890    -2.2040 O           1 DCD      -0.662600
     85 N11         -7.3560     2.7090    -0.1670 N           1 DCD      -0.547400
     86 C50         -6.9890     2.9160     1.2290 C          1 DCD       0.081500
     87 C51         -8.0310     2.3760     2.2140 C          1 DCD      -0.055600
     88 C52         -8.0510     0.8710     2.3070 C          1 DCD      -0.090300
     89 C53         -7.0650     0.1900     3.0320 C          1 DCD      -0.132000
     90 C54         -7.0730    -1.2070     3.1010 C          1 DCD      -0.119500
     91 C55         -8.0650    -1.9580     2.4520 C          1 DCD      -0.032000
     92 C56         -8.0780    -3.4260     2.5300 C          1 DCD      -0.041500
     93 C57         -6.9810    -4.1840     2.0930 C          1 DCD      -0.118500
     94 C58         -6.9950    -5.5790     2.1630 C          1 DCD      -0.131750
     95 C59         -8.1080    -6.2400     2.6750 C          1 DCD      -0.127000
     96 C60         -9.2070    -5.5070     3.1160 C          1 DCD      -0.131750
     97 C61         -9.1920    -4.1110     3.0430 C          1 DCD      -0.118500
     98 C62         -9.0490    -1.2660     1.7300 C          1 DCD      -0.119500
     99 C63         -9.0440     0.1310     1.6560 C          1 DCD      -0.132000
    100 N12         -4.9450    -1.4610    -1.3440 N           1 DCD      -0.561900
    101 C64         -4.2460    -2.0070    -0.3110 C           1 DCD       0.652600
    102 O22         -4.3120    -3.2370    -0.2250 O           1 DCD      -0.595600
    103 H1          -1.9320     1.8350    -1.4700 H          1 DCD       0.380300
    104 H2          -0.6530     2.6980    -0.9890 H          1 DCD       0.380300
    105 H3          -2.8500     3.0090     0.1180 H          1 DCD       0.085200
    106 H4          -0.8640     4.0970     1.0580 H          1 DCD       0.104200
    107 H5          -1.9310     3.5120     2.3200 H          1 DCD       0.104200
    108 H6           0.5500     1.7420     3.7550 H          1 DCD       0.464000
    109 H7          -2.1360    -0.0460    -0.3790 H          1 DCD       0.354500
    110 H8          -4.4280    -0.7800     1.3750 H          1 DCD       0.112200
    111 H9          -2.3500    -1.3930     2.5830 H          1 DCD       0.105450
    112 H10         -3.4400    -2.7240     2.2580 H          1 DCD       0.105450
    113 H11          0.1200    -0.3520     2.4720 H          1 DCD       0.100950
    114 H12          0.6330    -1.9800     2.8830 H          1 DCD       0.100950
    115 H13          2.8430    -1.7030     2.1270 H          1 DCD       0.104700
    116 H14          4.5730    -0.3250     3.0410 H          1 DCD       0.355000
    117 H15          3.6920     1.4470     5.2570 H          1 DCD       0.112200
    118 H16          4.4480    -0.0580     6.9540 H          1 DCD       0.098200
    119 H17          3.3290    -0.9710     5.9280 H          1 DCD       0.098200
    120 H18          6.4080    -2.4350     4.5270 H          1 DCD       0.455500
    121 H19          5.3600     1.9720     3.0950 H          1 DCD       0.476000
    122 H20          2.0120     0.7900     0.7160 H          1 DCD       0.338000
    123 H21          5.2830     0.7870    -0.9560 H          1 DCD       0.119200
    124 H22          2.8510     2.4880    -0.1170 H          1 DCD       0.095450
    125 H23          3.9330     2.9460    -1.4010 H          1 DCD       0.095450
    126 H24          5.9960     3.5770    -1.0300 H          1 DCD       0.318500
    127 H25          6.7570     4.0530     1.8330 H          1 DCD       0.067450
    128 H26          7.0410     5.1310     0.4600 H          1 DCD       0.067450
    129 H27          8.5060     3.2570    -0.5840 H          1 DCD       0.057700
    130 H28          9.1580     4.1510     0.7740 H          1 DCD       0.057700
    131 H29          9.7020     3.0890     2.8550 H          1 DCD       0.141750
    132 H30         10.0110     1.0360     4.1290 H          1 DCD       0.140750
    133 H31          8.6990    -0.5190     5.4700 H          1 DCD       0.140250
    134 H32          8.9110    -2.5760     6.7890 H          1 DCD       0.131750
    135 H33          9.3860    -4.7420     5.6740 H          1 DCD       0.130500
    136 H34          9.6620    -4.8240     3.2070 H          1 DCD       0.131750
    137 H35          9.4730    -2.7710     1.8680 H          1 DCD       0.140250
    138 H36          7.7600    -1.1400     1.1580 H          1 DCD       0.140750
    139 H37          7.5220     0.9040    -0.1510 H          1 DCD       0.141750
    140 H38          2.7100    -0.2300    -1.8460 H          1 DCD       0.334000
    141 H39          3.9670     0.0250    -5.2160 H          1 DCD       0.112200
    142 H40          3.2610    -1.7410    -3.2200 H          1 DCD       0.354500
    143 H41          3.5100    -3.8900    -4.0400 H          1 DCD       0.085200
    144 H42          2.5110    -5.4750    -5.8110 H          1 DCD       0.380300
    145 H43          2.3660    -4.0990    -6.6910 H          1 DCD       0.380300
    146 H44          0.4800    -3.7000    -4.5370 H          1 DCD       0.104200
    147 H45          1.2460    -5.2070    -3.9670 H          1 DCD       0.104200
    148 H46          0.1890    -3.5590    -1.0750 H          1 DCD       0.464000
    149 H47          1.5600     0.4820    -5.7410 H          1 DCD       0.105450
    150 H48          2.4360     1.8880    -5.1750 H          1 DCD       0.105450
    151 H49         -0.9460    -0.2450    -5.6330 H          1 DCD       0.100950
    152 H50         -1.7650    -1.5650    -4.8070 H          1 DCD       0.100950
    153 H51         -2.2980     1.3860    -4.1320 H          1 DCD       0.104700
    154 H52         -4.7350     1.4320    -6.8440 H          1 DCD       0.355000
    155 H53         -3.3700     2.9820    -4.7050 H          1 DCD       0.112200
    156 H54         -3.1630     4.0170    -6.9790 H          1 DCD       0.098200
    157 H55         -4.0820     5.0050    -5.8210 H          1 DCD       0.098200
    158 H56         -4.8990     6.0390    -7.5360 H          1 DCD       0.455500
    159 H57         -6.8530     2.0160    -3.7930 H          1 DCD       0.476000
    160 H58         -3.9010    -1.0770    -3.5270 H          1 DCD       0.338000
    161 H59         -6.0660    -0.2160    -2.4780 H          1 DCD       0.119200
    162 H60         -5.1120     1.2790    -0.0250 H          1 DCD       0.095450
    163 H61         -6.4210     0.0870     0.1320 H          1 DCD       0.095450
    164 H62         -8.0270     3.3520    -0.5730 H          1 DCD       0.318500
    165 H63         -6.9150     4.0020     1.3560 H          1 DCD       0.067450
    166 H64         -6.0000     2.4990     1.4330 H          1 DCD       0.067450
    167 H65         -7.8210     2.7780     3.2140 H          1 DCD       0.057700
    168 H66         -9.0290     2.7470     1.9440 H          1 DCD       0.057700
    169 H67         -6.2780     0.7390     3.5470 H          1 DCD       0.141750
    170 H68         -6.3030    -1.7100     3.6830 H          1 DCD       0.140750
    171 H69         -6.1050    -3.6930     1.6760 H          1 DCD       0.140250
    172 H70         -6.1370    -6.1460     1.8100 H          1 DCD       0.131750
    173 H71         -8.1200    -7.3250     2.7290 H          1 DCD       0.130500
    174 H72        -10.0770    -6.0190     3.5180 H          1 DCD       0.131750
    175 H73        -10.0570    -3.5560     3.4000 H          1 DCD       0.140250
    176 H74         -9.8290    -1.8170     1.2080 H          1 DCD       0.140750
    177 H75         -9.8200     0.6320     1.0810 H          1 DCD       0.141750
    178 H76         -5.3990    -2.1880    -1.8880 H          1 DCD       0.334000
@<TRIPOS>BOND
     1     1     2 1   
     2     1   103 1   
     3     1   104 1   
     4     2     3 1   
     5     2     7 1   
     6     2   105 1   
     7     3     4 1   
     8     3   106 1   
     9     3   107 1   
    10     4     5 2   
    11     4     6 1   
    12     6   108 1   
    13     7     8 2   
    14     7     9 1   
    15     9    10 1   
    16     9   109 1   
    17    10    11 1   
    18    10   101 1   
    19    10   110 1   
    20    11    12 1   
    21    11   111 1   
    22    11   112 1   
    23    12    13 1   
    24    13    14 1   
    25    14    15 1   
    26    14   113 1   
    27    14   114 1   
    28    15    16 1   
    29    15    27 1   
    30    15   115 1   
    31    16    17 2   
    32    16    18 1   
    33    18    19 1   
    34    18   116 1   
    35    19    20 1   
    36    19    24 1   
    37    19   117 1   
    38    20    21 1   
    39    20   118 1   
    40    20   119 1   
    41    21    22 2   
    42    21    23 1   
    43    23   120 1   
    44    24    25 2   
    45    24    26 1   
    46    26   121 1   
    47    27    28 1   
    48    27   122 1   
    49    28    29 2   
    50    28    30 1   
    51    30    31 1   
    52    30    49 1   
    53    30   123 1   
    54    31    32 1   
    55    31   124 1   
    56    31   125 1   
    57    32    33 2   
    58    32    34 1   
    59    34    35 1   
    60    34   126 1   
    61    35    36 1   
    62    35   127 1   
    63    35   128 1   
    64    36    37 1   
    65    36   129 1   
    66    36   130 1   
    67    37    38 ar  
    68    37    48 ar  
    69    38    39 ar  
    70    38   131 1   
    71    39    40 ar  
    72    39   132 1   
    73    40    41 1   
    74    40    47 ar  
    75    41    42 ar  
    76    41    46 ar  
    77    42    43 ar  
    78    42   133 1   
    79    43    44 ar  
    80    43   134 1   
    81    44    45 ar  
    82    44   135 1   
    83    45    46 ar  
    84    45   136 1   
    85    46   137 1   
    86    47    48 ar  
    87    47   138 1   
    88    48   139 1   
    89    49    50 1   
    90    49   140 1   
    91    50    51 2   
    92    50    52 1   
    93    52    53 1   
    94    52    62 1   
    95    52   141 1   
    96    53    54 1   
    97    53   142 1   
    98    54    55 2   
    99    54    56 1   
   100    56    57 1   
   101    56    58 1   
   102    56   143 1   
   103    57   144 1   
   104    57   145 1   
   105    58    59 1   
   106    58   146 1   
   107    58   147 1   
   108    59    60 2   
   109    59    61 1   
   110    61   148 1   
   111    62    63 1   
   112    62   149 1   
   113    62   150 1   
   114    63    64 1   
   115    64    65 1   
   116    65    66 1   
   117    65   151 1   
   118    65   152 1   
   119    66    67 1   
   120    66    78 1   
   121    66   153 1   
   122    67    68 2   
   123    67    69 1   
   124    69    70 1   
   125    69   154 1   
   126    70    71 1   
   127    70    75 1   
   128    70   155 1   
   129    71    72 1   
   130    71   156 1   
   131    71   157 1   
   132    72    73 2   
   133    72    74 1   
   134    74   158 1   
   135    75    76 2   
   136    75    77 1   
   137    77   159 1   
   138    78    79 1   
   139    78   160 1   
   140    79    80 2   
   141    79    81 1   
   142    81    82 1   
   143    81   100 1   
   144    81   161 1   
   145    82    83 1   
   146    82   162 1   
   147    82   163 1   
   148    83    84 2   
   149    83    85 1   
   150    85    86 1   
   151    85   164 1   
   152    86    87 1   
   153    86   165 1   
   154    86   166 1   
   155    87    88 1   
   156    87   167 1   
   157    87   168 1   
   158    88    89 ar  
   159    88    99 ar  
   160    89    90 ar  
   161    89   169 1   
   162    90    91 ar  
   163    90   170 1   
   164    91    92 1   
   165    91    98 ar  
   166    92    93 ar  
   167    92    97 ar  
   168    93    94 ar  
   169    93   171 1   
   170    94    95 ar  
   171    94   172 1   
   172    95    96 ar  
   173    95   173 1   
   174    96    97 ar  
   175    96   174 1   
   176    97   175 1   
   177    98    99 ar  
   178    98   176 1   
   179    99   177 1   
   180   100   101 1   
   181   100   178 1   
   182   101   102 2   
@<TRIPOS>SUBSTRUCTURE
     1 DCD         1 TEMP              0 ****  ****    0 ROOT
