@<TRIPOS>MOLECULE
93
   72    76     1     0     0
SMALL
bcc


@<TRIPOS>ATOM
      1 O           -3.8830    -3.5080     0.1530 O           0 93       -0.616600
      2 C           -3.1890    -2.5220     0.3160 C           0 93        0.686200
      3 N           -1.8450    -2.6060     0.5700 N           0 93       -0.568900
      4 C1          -1.2350    -3.9470     0.5350 C          0 93        0.084000
      5 C2          -0.0460    -3.9260    -0.4270 C          0 93       -0.127400
      6 C3           1.2690    -3.9620     0.3540 C          0 93        0.084000
      7 N1           1.8670    -2.6150     0.3400 N           0 93       -0.568900
      8 C4           3.2230    -2.5300     0.1510 C           0 93        0.686200
      9 O1           3.9330    -3.5130     0.0500 O           0 93       -0.616600
     10 C5           3.7550    -1.1590     0.0780 C          0 93       -0.183100
     11 C6           2.9590    -0.0280     0.1680 C          0 93       -0.078500
     12 C7           3.7570     1.1240     0.0560 C          0 93       -0.211100
     13 C8           5.0960     0.7560    -0.1050 C          0 93        0.054200
     14 C9           6.0970     1.8180    -0.2420 C          0 93       -0.119700
     15 C10          7.4220     1.8410    -0.4150 C          0 93       -0.127700
     16 C11          8.4850     0.7780    -0.5470 C          0 93       -0.040500
     17 C12          8.4790    -0.7300    -0.5100 C          0 93       -0.099700
     18 C13          7.5310    -1.6700    -0.3720 C          0 93       -0.174500
     19 C14          6.1340    -1.6700    -0.2010 C          0 93        0.014000
     20 C15          5.1420    -0.7120    -0.0930 C          0 93       -0.074500
     21 C16          3.1890     2.4840     0.1050 C           0 93        0.688700
     22 O2           3.8780     3.4840     0.0270 O           0 93       -0.613100
     23 N2           1.8260     2.5390     0.2440 N           0 93       -0.568900
     24 C17          1.2050     3.8750     0.2980 C          0 93        0.083500
     25 C18         -0.1510     3.8190    -0.4060 C          0 93       -0.125400
     26 C19         -1.2870     3.9070     0.6160 C          0 93        0.083500
     27 N3          -1.9250     2.5830     0.7330 N           0 93       -0.568900
     28 C20         -3.2450     2.4950     0.3750 C           0 93        0.688700
     29 O3          -3.9270     3.4780     0.1520 O           0 93       -0.613100
     30 C21         -3.7810     1.1250     0.2770 C          0 93       -0.211100
     31 C22         -5.0950     0.7380    -0.0050 C          0 93        0.054200
     32 C23         -6.0990     1.7870    -0.2030 C          0 93       -0.119700
     33 C24         -7.3960     1.7920    -0.5260 C          0 93       -0.127700
     34 C25         -8.4030     0.7120    -0.8390 C          0 93       -0.040500
     35 C26         -8.3800    -0.7950    -0.8040 C          0 93       -0.099700
     36 C27         -7.4400    -1.7230    -0.5690 C          0 93       -0.174500
     37 C28         -6.0680    -1.7050    -0.2550 C          0 93        0.014000
     38 C29         -5.1110    -0.7310    -0.0310 C          0 93       -0.074500
     39 C30         -3.7340    -1.1560     0.2480 C          0 93       -0.183100
     40 C31         -2.9780    -0.0140     0.4520 C          0 93       -0.078500
     41 H           -1.3170    -1.8150     0.7650 H          0 93        0.308500
     42 H1          -0.8910    -4.2180     1.5340 H          0 93        0.061450
     43 H2          -1.9700    -4.6740     0.1910 H          0 93        0.061450
     44 H3          -0.0990    -4.7940    -1.0850 H          0 93        0.062200
     45 H4          -0.0840    -3.0180    -1.0280 H          0 93        0.062200
     46 H5           1.0750    -4.2650     1.3830 H          0 93        0.061450
     47 H6           1.9530    -4.6700    -0.1140 H          0 93        0.061450
     48 H7           1.3230    -1.8210     0.4590 H          0 93        0.308500
     49 H8           1.8870    -0.0300     0.3040 H          0 93        0.141500
     50 H9           5.6660     2.8070    -0.1930 H          0 93        0.168000
     51 H10          7.8200     2.8430    -0.4730 H          0 93        0.132500
     52 H11          8.9920     1.0210    -1.4810 H          0 93        0.065200
     53 H12          9.2390     1.0610     0.1860 H          0 93        0.065200
     54 H13          9.4670    -1.1510    -0.6210 H          0 93        0.131000
     55 H14          7.9400    -2.6690    -0.3980 H          0 93        0.140500
     56 H15          5.7350    -2.6720    -0.1380 H          0 93        0.167500
     57 H16          1.2920     1.7310     0.3040 H          0 93        0.306000
     58 H17          1.0650     4.1700     1.3380 H          0 93        0.060700
     59 H18          1.8490     4.5970    -0.2040 H          0 93        0.060700
     60 H19         -0.2290     4.6530    -1.1040 H          0 93        0.061200
     61 H20         -0.2340     2.8830    -0.9580 H          0 93        0.061200
     62 H21         -0.8850     4.2050     1.5840 H          0 93        0.060700
     63 H22         -2.0230     4.6380     0.2820 H          0 93        0.060700
     64 H23         -1.4330     1.8100     1.0490 H          0 93        0.306000
     65 H24         -5.7010     2.7800    -0.0540 H          0 93        0.168000
     66 H25         -7.8150     2.7860    -0.5730 H          0 93        0.132500
     67 H26         -9.2760     0.9800    -0.2440 H          0 93        0.065200
     68 H27         -8.7480     0.9520    -1.8450 H          0 93        0.065200
     69 H28         -9.3460    -1.2290    -1.0180 H          0 93        0.131000
     70 H29         -7.8310    -2.7280    -0.6380 H          0 93        0.140500
     71 H30         -5.6600    -2.7010    -0.1650 H          0 93        0.167500
     72 H31         -1.9270    -0.0010     0.7010 H          0 93        0.141500
@<TRIPOS>BOND
     1     1     2 2   
     2     2     3 1   
     3     2    39 1   
     4     3     4 1   
     5     3    41 1   
     6     4     5 1   
     7     4    42 1   
     8     4    43 1   
     9     5     6 1   
    10     5    44 1   
    11     5    45 1   
    12     6     7 1   
    13     6    46 1   
    14     6    47 1   
    15     7     8 1   
    16     7    48 1   
    17     8     9 2   
    18     8    10 1   
    19    10    11 2   
    20    10    20 1   
    21    11    12 1   
    22    11    49 1   
    23    12    13 2   
    24    12    21 1   
    25    13    14 1   
    26    13    20 1   
    27    14    15 2   
    28    14    50 1   
    29    15    16 1   
    30    15    51 1   
    31    16    17 1   
    32    16    52 1   
    33    16    53 1   
    34    17    18 2   
    35    17    54 1   
    36    18    19 1   
    37    18    55 1   
    38    19    20 2   
    39    19    56 1   
    40    21    22 2   
    41    21    23 1   
    42    23    24 1   
    43    23    57 1   
    44    24    25 1   
    45    24    58 1   
    46    24    59 1   
    47    25    26 1   
    48    25    60 1   
    49    25    61 1   
    50    26    27 1   
    51    26    62 1   
    52    26    63 1   
    53    27    28 1   
    54    27    64 1   
    55    28    29 2   
    56    28    30 1   
    57    30    31 2   
    58    30    40 1   
    59    31    32 1   
    60    31    38 1   
    61    32    33 2   
    62    32    65 1   
    63    33    34 1   
    64    33    66 1   
    65    34    35 1   
    66    34    67 1   
    67    34    68 1   
    68    35    36 2   
    69    35    69 1   
    70    36    37 1   
    71    36    70 1   
    72    37    38 2   
    73    37    71 1   
    74    38    39 1   
    75    39    40 2   
    76    40    72 1   
@<TRIPOS>SUBSTRUCTURE
     1 93          1 TEMP              0 ****  ****    0 ROOT
