@<TRIPOS>MOLECULE
ASB
  102   106     1     0     0
SMALL
bcc


@<TRIPOS>ATOM
      1 C            9.1020     0.1650    -0.1880 C          0 ASB      -0.035300
      2 C1           7.5980     0.1130    -0.1040 C          0 ASB      -0.159800
      3 C2           6.8700     1.2870    -0.0440 C          0 ASB       0.241100
      4 O            7.5110     2.4810    -0.0540 O          0 ASB      -0.492100
      5 C3           5.4620     1.2460     0.0260 C          0 ASB      -0.270600
      6 C4           4.8080     0.0180     0.0340 C          0 ASB      -0.012500
      7 C5           5.5440    -1.1620    -0.0190 C          0 ASB      -0.270600
      8 C6           6.9500    -1.1080    -0.0920 C          0 ASB       0.241100
      9 O1           7.6680    -2.2560    -0.1410 O          0 ASB      -0.492100
     10 C7           4.8760    -2.4710    -0.0080 C           0 ASB       0.682200
     11 O2           5.5420    -3.4890    -0.0300 O           0 ASB      -0.643100
     12 N            3.5170    -2.5550     0.0280 N           0 ASB      -0.551900
     13 C8           2.9790    -3.9320     0.0480 C          0 ASB       0.125300
     14 C9           1.4750    -3.8850     0.0280 C          0 ASB      -0.104800
     15 C10          0.8020    -3.7320    -1.1690 C          0 ASB      -0.065300
     16 C11          1.5740    -3.5710    -2.4530 C          0 ASB      -0.064550
     17 C12         -0.5800    -3.7260    -1.1880 C          0 ASB      -0.065300
     18 C13         -1.3140    -3.5650    -2.4950 C          0 ASB      -0.064550
     19 C14         -1.2900    -3.8680    -0.0100 C          0 ASB      -0.104800
     20 C15         -2.7900    -3.9230    -0.0350 C          0 ASB       0.125300
     21 N1          -3.3650    -2.5640    -0.0270 N           0 ASB      -0.551900
     22 C16         -4.7190    -2.5080    -0.0510 C           0 ASB       0.682200
     23 O3          -5.3440    -3.5510    -0.0680 O           0 ASB      -0.643100
     24 C17         -5.4610    -1.2440    -0.0580 C          0 ASB      -0.270600
     25 C18         -6.8710    -1.2820    -0.0670 C          0 ASB       0.241100
     26 O4          -7.5120    -2.4760    -0.0740 O          0 ASB      -0.492100
     27 C19         -7.6010    -0.1080    -0.0700 C          0 ASB      -0.159800
     28 C20         -9.1080    -0.1580    -0.0750 C          0 ASB      -0.035300
     29 C21         -6.9500     1.1120    -0.0680 C          0 ASB       0.241100
     30 O5          -7.6680     2.2600    -0.0710 O          0 ASB      -0.492100
     31 C22         -5.5430     1.1650    -0.0610 C          0 ASB      -0.270600
     32 C23         -4.8050    -0.0160    -0.0550 C          0 ASB      -0.012500
     33 C24         -4.8750     2.4740    -0.0620 C           0 ASB       0.682200
     34 O6          -5.5460     3.4880    -0.0750 O           0 ASB      -0.643100
     35 N2          -3.5210     2.5690    -0.0470 N           0 ASB      -0.551900
     36 C25         -2.9720     3.9390    -0.0570 C          0 ASB       0.125300
     37 C26         -1.4700     3.8860     0.0210 C          0 ASB      -0.104800
     38 C27         -0.7180     3.9090    -1.1390 C          0 ASB      -0.065300
     39 C28         -1.4020     3.9450    -2.4810 C          0 ASB      -0.064550
     40 C29          0.6620     3.8980    -1.0670 C          0 ASB      -0.065300
     41 C30          1.4820     3.9280    -2.3310 C          0 ASB      -0.064550
     42 C31          1.2910     3.8590     0.1640 C          0 ASB      -0.104800
     43 C32          2.7900     3.9070     0.2470 C          0 ASB       0.125300
     44 N3           3.3590     2.5470     0.1350 N           0 ASB      -0.551900
     45 C33          4.7190     2.5090     0.0940 C           0 ASB       0.682200
     46 O7           5.3370     3.5550     0.1150 O           0 ASB      -0.643100
     47 C34          0.5370     3.7980     1.3220 C          0 ASB      -0.065300
     48 C35          1.2210     3.7150     2.6620 C          0 ASB      -0.064550
     49 C36         -0.8430     3.8130     1.2500 C          0 ASB      -0.065300
     50 C37         -1.6640     3.7510     2.5130 C          0 ASB      -0.064550
     51 C38         -0.6150    -3.9820     1.1920 C          0 ASB      -0.065300
     52 C39         -1.3860    -4.0940     2.4810 C          0 ASB      -0.064550
     53 C40          0.7670    -3.9930     1.2110 C          0 ASB      -0.065300
     54 C41          1.5010    -4.1220     2.5200 C          0 ASB      -0.064550
     55 H            9.5220     0.1610     0.8180 H          0 ASB       0.055033
     56 H1           9.4650    -0.7040    -0.7370 H          0 ASB       0.055033
     57 H2           9.4060     1.0750    -0.7050 H          0 ASB       0.055033
     58 H3           7.5960     2.7450    -0.9810 H          0 ASB       0.463000
     59 H4           3.7300    -0.0200     0.0830 H          0 ASB       0.135000
     60 H5           7.7680    -2.4840    -1.0750 H          0 ASB       0.463000
     61 H6           2.9460    -1.7710     0.0400 H          0 ASB       0.312500
     62 H7           3.3370    -4.4750    -0.8270 H          0 ASB       0.074200
     63 H8           3.3150    -4.4400     0.9530 H          0 ASB       0.074200
     64 H9           1.7570    -4.5520    -2.8920 H          0 ASB       0.050450
     65 H10          0.9980    -2.9630    -3.1500 H          0 ASB       0.050450
     66 H11          2.5260    -3.0820    -2.2460 H          0 ASB       0.050450
     67 H12         -1.4940    -4.5460    -2.9340 H          0 ASB       0.050450
     68 H13         -2.2670    -3.0660    -2.3170 H          0 ASB       0.050450
     69 H14         -0.7130    -2.9650    -3.1780 H          0 ASB       0.050450
     70 H15         -3.1160    -4.4450    -0.9350 H          0 ASB       0.074200
     71 H16         -3.1440    -4.4660     0.8420 H          0 ASB       0.074200
     72 H17         -2.8120    -1.7670    -0.0070 H          0 ASB       0.312500
     73 H18         -7.6510    -2.7240     0.8500 H          0 ASB       0.463000
     74 H19         -9.4740    -0.1700     0.9520 H          0 ASB       0.055033
     75 H20         -9.4990     0.7190    -0.5900 H          0 ASB       0.055033
     76 H21         -9.4400    -1.0600    -0.5890 H          0 ASB       0.055033
     77 H22         -7.8210     2.4980     0.8540 H          0 ASB       0.463000
     78 H23         -3.7260     0.0210    -0.0490 H          0 ASB       0.135000
     79 H24         -2.9500     1.7850    -0.0320 H          0 ASB       0.312500
     80 H25         -3.2700     4.4420    -0.9760 H          0 ASB       0.074200
     81 H26         -3.3600     4.4900     0.8000 H          0 ASB       0.074200
     82 H27         -1.5600     4.9810    -2.7800 H          0 ASB       0.050450
     83 H28         -0.7780     3.4440    -3.2210 H          0 ASB       0.050450
     84 H29         -2.3640     3.4360    -2.4120 H          0 ASB       0.050450
     85 H30          1.6870     4.9630    -2.6070 H          0 ASB       0.050450
     86 H31          2.4230     3.4040    -2.1660 H          0 ASB       0.050450
     87 H32          0.9300     3.4410    -3.1340 H          0 ASB       0.050450
     88 H33          3.1760     4.5260    -0.5630 H          0 ASB       0.074200
     89 H34          3.0840     4.3430     1.2020 H          0 ASB       0.074200
     90 H35          2.8090     1.7490     0.0890 H          0 ASB       0.312500
     91 H36          1.3940     4.7210     3.0450 H          0 ASB       0.050450
     92 H37          0.5890     3.1650     3.3590 H          0 ASB       0.050450
     93 H38          2.1750     3.1990     2.5520 H          0 ASB       0.050450
     94 H39         -1.8530     4.7620     2.8730 H          0 ASB       0.050450
     95 H40         -2.6120     3.2560     2.3050 H          0 ASB       0.050450
     96 H41         -1.1190     3.1910     3.2730 H          0 ASB       0.050450
     97 H42         -1.5790    -5.1450     2.6990 H          0 ASB       0.050450
     98 H43         -0.8050    -3.6560     3.2920 H          0 ASB       0.050450
     99 H44         -2.3330    -3.5630     2.3850 H          0 ASB       0.050450
    100 H45          1.6720    -5.1760     2.7390 H          0 ASB       0.050450
    101 H46          2.4590    -3.6060     2.4520 H          0 ASB       0.050450
    102 H47          0.9050    -3.6780     3.3170 H          0 ASB       0.050450
@<TRIPOS>BOND
     1     1     2 1   
     2     1    55 1   
     3     1    56 1   
     4     1    57 1   
     5     2     3 ar  
     6     2     8 ar  
     7     3     4 1   
     8     3     5 ar  
     9     4    58 1   
    10     5     6 ar  
    11     5    45 1   
    12     6     7 ar  
    13     6    59 1   
    14     7     8 ar  
    15     7    10 1   
    16     8     9 1   
    17     9    60 1   
    18    10    11 2   
    19    10    12 1   
    20    12    13 1   
    21    12    61 1   
    22    13    14 1   
    23    13    62 1   
    24    13    63 1   
    25    14    15 ar  
    26    14    53 ar  
    27    15    16 1   
    28    15    17 ar  
    29    16    64 1   
    30    16    65 1   
    31    16    66 1   
    32    17    18 1   
    33    17    19 ar  
    34    18    67 1   
    35    18    68 1   
    36    18    69 1   
    37    19    20 1   
    38    19    51 ar  
    39    20    21 1   
    40    20    70 1   
    41    20    71 1   
    42    21    22 1   
    43    21    72 1   
    44    22    23 2   
    45    22    24 1   
    46    24    25 ar  
    47    24    32 ar  
    48    25    26 1   
    49    25    27 ar  
    50    26    73 1   
    51    27    28 1   
    52    27    29 ar  
    53    28    74 1   
    54    28    75 1   
    55    28    76 1   
    56    29    30 1   
    57    29    31 ar  
    58    30    77 1   
    59    31    32 ar  
    60    31    33 1   
    61    32    78 1   
    62    33    34 2   
    63    33    35 1   
    64    35    36 1   
    65    35    79 1   
    66    36    37 1   
    67    36    80 1   
    68    36    81 1   
    69    37    38 ar  
    70    37    49 ar  
    71    38    39 1   
    72    38    40 ar  
    73    39    82 1   
    74    39    83 1   
    75    39    84 1   
    76    40    41 1   
    77    40    42 ar  
    78    41    85 1   
    79    41    86 1   
    80    41    87 1   
    81    42    43 1   
    82    42    47 ar  
    83    43    44 1   
    84    43    88 1   
    85    43    89 1   
    86    44    45 1   
    87    44    90 1   
    88    45    46 2   
    89    47    48 1   
    90    47    49 ar  
    91    48    91 1   
    92    48    92 1   
    93    48    93 1   
    94    49    50 1   
    95    50    94 1   
    96    50    95 1   
    97    50    96 1   
    98    51    52 1   
    99    51    53 ar  
   100    52    97 1   
   101    52    98 1   
   102    52    99 1   
   103    53    54 1   
   104    54   100 1   
   105    54   101 1   
   106    54   102 1   
@<TRIPOS>SUBSTRUCTURE
     1 ASB         1 TEMP              0 ****  ****    0 ROOT
