@<TRIPOS>MOLECULE
URE
  107   110     1     0     0
SMALL
bcc


@<TRIPOS>ATOM
      1 C            2.5380     0.6280     1.2950 C          0 URE      -0.221100
      2 C1           1.4150     0.6870     2.2970 C           0 URE       0.590100
      3 O            0.8110     1.7190     2.4670 O           0 URE      -0.554100
      4 C2           1.0460    -0.5410     3.0890 C          0 URE      -0.184400
      5 C3          -0.1160    -0.2130     4.0280 C          0 URE       0.114500
      6 S           -0.6020    -1.7070     4.9320 S          0 URE      -0.319700
      7 C4           0.6160    -2.8790     4.2710 C          0 URE      -0.009300
      8 C5          -0.0710    -4.2040     3.9430 C          0 URE      -0.021300
      9 N           -0.2610    -4.3110     2.4940 N           0 URE      -0.503900
     10 C6           0.7840    -4.2020     1.6580 C           0 URE       0.665200
     11 O1           1.9140    -4.2040     2.1050 O           0 URE      -0.667600
     12 C7           0.5740    -4.0790     0.2010 C          0 URE      -0.156600
     13 C8          -0.7140    -4.1160    -0.3250 C          0 URE      -0.039250
     14 C9          -0.9130    -3.9790    -1.6990 C          0 URE      -0.161350
     15 C10          0.1810    -3.8240    -2.5470 C          0 URE      -0.024000
     16 C11          1.4700    -3.7700    -2.0200 C          0 URE      -0.161350
     17 C12          1.6680    -3.9100    -0.6470 C          0 URE      -0.039250
     18 C13          2.6270    -3.5330    -2.9080 C           0 URE       0.672200
     19 O2           2.4720    -3.4920    -4.1130 O           0 URE      -0.661850
     20 N1           3.8580    -3.3630    -2.3780 N           0 URE      -0.518650
     21 C14          4.9570    -2.9340    -3.2490 C          0 URE      -0.015050
     22 C15          4.7000    -1.4870    -3.6880 C          0 URE       0.008200
     23 S1           5.1990    -0.3600    -2.3570 S          0 URE      -0.218100
     24 S2           4.6480     1.4360    -3.1790 S          0 URE      -0.218100
     25 C16          4.4010     2.4130    -1.6730 C          0 URE       0.008200
     26 C17          3.9720     3.8350    -2.0440 C          0 URE      -0.015050
     27 N2           2.7240     4.1680    -1.3680 N           0 URE      -0.518650
     28 C18          1.5550     4.2820    -2.0100 C           0 URE       0.672200
     29 O3           1.5470     4.3870    -3.2210 O           0 URE      -0.661850
     30 C19          0.2730     4.2830    -1.2730 C          0 URE      -0.161350
     31 C20          0.2770     4.2840     0.1220 C          0 URE      -0.039250
     32 C21         -0.9260     4.2320     0.8230 C          0 URE      -0.156600
     33 C22         -2.1370     4.1990     0.1300 C          0 URE      -0.039250
     34 C23         -2.1440     4.1880    -1.2660 C          0 URE      -0.161350
     35 C24         -0.9390     4.2570    -1.9640 C          0 URE      -0.024000
     36 C25         -3.4190     4.0200    -1.9930 C           0 URE       0.672200
     37 O4          -3.4390     4.1030    -3.2060 O           0 URE      -0.661850
     38 N3          -4.5580     3.7760    -1.3210 N           0 URE      -0.518650
     39 C26         -5.7520     3.2870    -2.0100 C          0 URE      -0.015050
     40 C27         -5.4500     1.9310    -2.6570 C          0 URE       0.008200
     41 S3          -5.2420     0.6750    -1.3640 S          0 URE      -0.218100
     42 S4          -4.7890    -0.9580    -2.5120 S          0 URE      -0.218100
     43 C28         -5.1100    -2.2830    -1.3150 C          0 URE       0.008200
     44 C29         -4.6750    -3.6300    -1.8980 C          0 URE      -0.015050
     45 N4          -3.3350    -3.9560    -1.4050 N           0 URE      -0.518650
     46 C30         -2.2880    -3.9380    -2.2400 C           0 URE       0.672200
     47 O5          -2.4710    -3.8890    -3.4410 O           0 URE      -0.661850
     48 C31         -5.6440    -4.7020    -1.4690 C           0 URE       0.909600
     49 O6          -6.6210    -4.9510    -2.1550 O           0 URE      -0.848300
     50 O7          -5.4520    -5.3190    -0.4360 O           0 URE      -0.848300
     51 C32         -6.8760     3.1300    -1.0190 C           0 URE       0.909600
     52 O8          -6.6950     3.4030     0.1560 O           0 URE      -0.848300
     53 O9          -7.9660     2.7310    -1.3910 O           0 URE      -0.848300
     54 C33         -0.9240     4.1510     2.2980 C           0 URE       0.665200
     55 O10         -1.9780     4.2110     2.9020 O           0 URE      -0.667600
     56 N5           0.2220     4.0120     2.9830 N           0 URE      -0.503900
     57 C34          0.2030     3.6900     4.4120 C          0 URE      -0.021300
     58 C35         -0.6490     2.4380     4.6410 C          0 URE      -0.009300
     59 S5           0.3990     1.0710     5.2000 S          0 URE      -0.319700
     60 C36          1.6100     3.4340     4.8870 C           0 URE       0.906100
     61 O11          2.5420     3.5130     4.1050 O           0 URE      -0.849800
     62 O12          1.8170     3.1470     6.0540 O           0 URE      -0.849800
     63 C37          5.0440     4.8070    -1.6220 C           0 URE       0.909600
     64 O13          5.9430     5.0950    -2.3930 O           0 URE      -0.848300
     65 O14          5.0120     5.3060    -0.5100 O           0 URE      -0.848300
     66 C38          6.2600    -3.0100    -2.4950 C           0 URE       0.909600
     67 O15          6.2720    -3.3870    -1.3360 O           0 URE      -0.848300
     68 O16          7.3010    -2.6930    -3.0440 O           0 URE      -0.848300
     69 C39          0.7870    -5.3470     4.4230 C           0 URE       0.906100
     70 O17          0.6420    -5.7850     5.5520 O           0 URE      -0.849800
     71 O18          1.6250    -5.8320     3.6830 O           0 URE      -0.849800
     72 H            2.6570     1.6050     0.8250 H          0 URE       0.070700
     73 H1           3.4640     0.3540     1.8010 H          0 URE       0.070700
     74 H2           2.3070    -0.1160     0.5330 H          0 URE       0.070700
     75 H3           0.7480    -1.3370     2.4060 H          0 URE       0.091200
     76 H4           1.9050    -0.8670     3.6750 H          0 URE       0.091200
     77 H5          -0.9630     0.1490     3.4440 H          0 URE       0.110700
     78 H6           1.0610    -2.4670     3.3660 H          0 URE       0.083450
     79 H7           1.3960    -3.0480     5.0140 H          0 URE       0.083450
     80 H8          -1.0400    -4.2440     4.4410 H          0 URE       0.065200
     81 H9          -1.1490    -4.4630     2.1360 H          0 URE       0.324000
     82 H10         -1.5610    -4.2520     0.3320 H          0 URE       0.159500
     83 H11          0.0310    -3.7460    -3.6140 H          0 URE       0.172500
     84 H12          2.6680    -3.8850    -0.2400 H          0 URE       0.159500
     85 H13          4.0130    -3.5230    -1.4340 H          0 URE       0.327500
     86 H14          5.0020    -3.5800    -4.1260 H          0 URE       0.082700
     87 H15          5.2800    -1.2710    -4.5850 H          0 URE       0.070075
     88 H16          3.6390    -1.3540    -3.9000 H          0 URE       0.070075
     89 H17          3.6270     1.9490    -1.0620 H          0 URE       0.070075
     90 H18          5.3330     2.4510    -1.1080 H          0 URE       0.070075
     91 H19          3.8290     3.9000    -3.1220 H          0 URE       0.082700
     92 H20          2.7420     4.3130    -0.4090 H          0 URE       0.327500
     93 H21          1.2130     4.3250     0.6590 H          0 URE       0.159500
     94 H22         -3.0690     4.1810     0.6740 H          0 URE       0.159500
     95 H23         -0.9430     4.2900    -3.0440 H          0 URE       0.172500
     96 H24         -4.5890     3.9260    -0.3630 H          0 URE       0.327500
     97 H25         -6.0440     4.0000    -2.7810 H          0 URE       0.082700
     98 H26         -6.2760     1.6480    -3.3100 H          0 URE       0.070075
     99 H27         -4.5330     2.0050    -3.2430 H          0 URE       0.070075
    100 H28         -4.5500    -2.0880    -0.4000 H          0 URE       0.070075
    101 H29         -6.1750    -2.3150    -1.0860 H          0 URE       0.070075
    102 H30         -4.6580    -3.5680    -2.9860 H          0 URE       0.082700
    103 H31         -3.2080    -4.1820    -0.4700 H          0 URE       0.327500
    104 H32          1.0700     4.1260     2.5270 H          0 URE       0.324000
    105 H33         -0.2220     4.5250     4.9680 H          0 URE       0.065200
    106 H34         -1.4040     2.6470     5.3990 H          0 URE       0.083450
    107 H35         -1.1400     2.1590     3.7090 H          0 URE       0.083450
@<TRIPOS>BOND
     1     1     2 1   
     2     1    72 1   
     3     1    73 1   
     4     1    74 1   
     5     2     3 2   
     6     2     4 1   
     7     4     5 1   
     8     4    75 1   
     9     4    76 1   
    10     5     6 1   
    11     5    59 1   
    12     5    77 1   
    13     6     7 1   
    14     7     8 1   
    15     7    78 1   
    16     7    79 1   
    17     8     9 1   
    18     8    69 1   
    19     8    80 1   
    20     9    10 1   
    21     9    81 1   
    22    10    11 2   
    23    10    12 1   
    24    12    13 ar  
    25    12    17 ar  
    26    13    14 ar  
    27    13    82 1   
    28    14    15 ar  
    29    14    46 1   
    30    15    16 ar  
    31    15    83 1   
    32    16    17 ar  
    33    16    18 1   
    34    17    84 1   
    35    18    19 2   
    36    18    20 1   
    37    20    21 1   
    38    20    85 1   
    39    21    22 1   
    40    21    66 1   
    41    21    86 1   
    42    22    23 1   
    43    22    87 1   
    44    22    88 1   
    45    23    24 1   
    46    24    25 1   
    47    25    26 1   
    48    25    89 1   
    49    25    90 1   
    50    26    27 1   
    51    26    63 1   
    52    26    91 1   
    53    27    28 1   
    54    27    92 1   
    55    28    29 2   
    56    28    30 1   
    57    30    31 ar  
    58    30    35 ar  
    59    31    32 ar  
    60    31    93 1   
    61    32    33 ar  
    62    32    54 1   
    63    33    34 ar  
    64    33    94 1   
    65    34    35 ar  
    66    34    36 1   
    67    35    95 1   
    68    36    37 2   
    69    36    38 1   
    70    38    39 1   
    71    38    96 1   
    72    39    40 1   
    73    39    51 1   
    74    39    97 1   
    75    40    41 1   
    76    40    98 1   
    77    40    99 1   
    78    41    42 1   
    79    42    43 1   
    80    43    44 1   
    81    43   100 1   
    82    43   101 1   
    83    44    45 1   
    84    44    48 1   
    85    44   102 1   
    86    45    46 1   
    87    45   103 1   
    88    46    47 2   
    89    48    49 1   
    90    48    50 1   
    91    51    52 1   
    92    51    53 1   
    93    54    55 2   
    94    54    56 1   
    95    56    57 1   
    96    56   104 1   
    97    57    58 1   
    98    57    60 1   
    99    57   105 1   
   100    58    59 1   
   101    58   106 1   
   102    58   107 1   
   103    60    61 1   
   104    60    62 1   
   105    63    64 1   
   106    63    65 1   
   107    66    67 1   
   108    66    68 1   
   109    69    70 1   
   110    69    71 1   
@<TRIPOS>SUBSTRUCTURE
     1 URE         1 TEMP              0 ****  ****    0 ROOT
