@<TRIPOS>MOLECULE
ASB
  124   130     1     0     0
SMALL
bcc


@<TRIPOS>ATOM
      1 C1           3.5370     0.8400     5.1470 C          1 ASB      -0.072300
      2 C2           2.7370     2.1290     5.1160 C          1 ASB      -0.060425
      3 C3           1.4370     2.1670     5.6980 C          1 ASB      -0.060425
      4 C4           0.8760     0.8970     6.3060 C          1 ASB      -0.072300
      5 C5           0.6990     3.3820     5.7130 C          1 ASB      -0.111800
      6 C6          -0.6930     3.4300     6.3380 C          1 ASB       0.121050
      7 N1          -1.6770     2.9110     5.3980 N           1 ASB      -0.524400
      8 C7          -2.7690     2.1880     5.8090 C           1 ASB       0.663950
      9 O1          -3.0130     1.8830     6.9670 O           1 ASB      -0.560100
     10 C8          -3.6670     1.6460     4.7610 C          1 ASB      -0.120850
     11 C9          -3.7370     2.1500     3.4700 C          1 ASB      -0.005250
     12 C10         -4.4720     1.4530     2.5150 C          1 ASB      -0.117500
     13 C11         -5.1490     0.2610     2.8510 C          1 ASB      -0.009050
     14 C12         -5.5640    -0.6630     1.7750 C          1 ASB      -0.009050
     15 C13         -4.7570    -1.7810     1.4760 C          1 ASB      -0.117500
     16 C14         -4.8810    -2.4470     0.2600 C          1 ASB      -0.005250
     17 C15         -5.8050    -1.9840    -0.6660 C          1 ASB      -0.120850
     18 C16         -6.6650    -0.9430    -0.3060 C          1 ASB       0.043200
     19 N2          -6.5460    -0.3010     0.8930 N          1 ASB       0.051650
     20 C17         -7.5130     0.7960     1.1660 C          1 ASB      -0.044400
     21 C18         -5.8970    -2.4830    -2.0590 C           1 ASB       0.663950
     22 O2          -6.9280    -2.2480    -2.6710 O           1 ASB      -0.560100
     23 N3          -4.7840    -3.0860    -2.5920 N           1 ASB      -0.524400
     24 C19         -4.7440    -3.5480    -3.9720 C          1 ASB       0.121050
     25 C20         -3.3240    -3.4310    -4.5220 C          1 ASB      -0.111800
     26 C21         -2.4400    -4.5470    -4.4600 C          1 ASB      -0.060425
     27 C22         -2.9420    -5.8520    -3.8670 C          1 ASB      -0.072300
     28 C23         -1.1340    -4.4640    -5.0240 C          1 ASB      -0.060425
     29 C24         -0.2250    -5.6760    -4.9620 C          1 ASB      -0.072300
     30 C25         -0.7240    -3.2760    -5.6880 C          1 ASB      -0.111800
     31 C26          0.6210    -3.2020    -6.4070 C          1 ASB       0.121050
     32 N4           1.6640    -2.7910    -5.4770 N           1 ASB      -0.524400
     33 C27          2.7150    -1.9990    -5.8700 C           1 ASB       0.663950
     34 O3           2.8840    -1.5760    -7.0050 O           1 ASB      -0.560100
     35 C28          3.6540    -1.5250    -4.8230 C          1 ASB      -0.120850
     36 C29          3.7610    -2.0950    -3.5620 C          1 ASB      -0.005250
     37 C30          4.5160    -1.4430    -2.5910 C          1 ASB      -0.117500
     38 C31          5.1790    -0.2310    -2.8810 C          1 ASB      -0.009050
     39 C32          5.5960     0.6500    -1.7700 C          1 ASB      -0.009050
     40 C33          4.7870     1.7540    -1.4240 C          1 ASB      -0.117500
     41 C34          4.9080     2.3670    -0.1810 C          1 ASB      -0.005250
     42 C35          5.8290     1.8650     0.7280 C          1 ASB      -0.120850
     43 C36          6.6920     0.8410     0.3230 C          1 ASB       0.043200
     44 N5           6.5780     0.2530    -0.9030 N          1 ASB       0.051650
     45 C37          7.5530    -0.8230    -1.2260 C          1 ASB      -0.044400
     46 C38          5.9080     2.2880     2.1480 C           1 ASB       0.663950
     47 O4           6.9010     1.9510     2.7780 O           1 ASB      -0.560100
     48 N6           4.8240     2.9370     2.6880 N           1 ASB      -0.524400
     49 C39          4.7690     3.2850     4.1010 C          1 ASB       0.121050
     50 C40          3.3230     3.3120     4.5870 C          1 ASB      -0.111800
     51 C41          2.5550     4.5060     4.5240 C          1 ASB      -0.060425
     52 C42          3.1280     5.7590     3.8920 C          1 ASB      -0.072300
     53 C43          1.2590     4.5480     5.1140 C          1 ASB      -0.060425
     54 C44          0.4800     5.8500     5.1780 C          1 ASB      -0.072300
     55 N7           5.1610     0.2410    -4.1660 N          1 ASB       0.051650
     56 C45          5.9240     1.4430    -4.5950 C          1 ASB      -0.044400
     57 C46          4.4100    -0.3860    -5.1180 C          1 ASB       0.043200
     58 C47         -1.5780    -2.1360    -5.6780 C          1 ASB      -0.060425
     59 C48         -1.1290    -0.8730    -6.3920 C          1 ASB      -0.072300
     60 C49         -2.8700    -2.2080    -5.0860 C          1 ASB      -0.060425
     61 C50         -3.7640    -0.9850    -5.1230 C          1 ASB      -0.072300
     62 N8          -5.1590    -0.1490     4.1570 N          1 ASB       0.051650
     63 C51         -5.9320    -1.3310     4.6250 C          1 ASB      -0.044400
     64 C52         -4.4310     0.5240     5.0950 C          1 ASB       0.043200
     65 H1           4.1630     0.8130     6.0440 H          1 ASB       0.056783
     66 H2           4.1690     0.7360     4.2600 H          1 ASB       0.056783
     67 H3           2.9000    -0.0480     5.1340 H          1 ASB       0.056783
     68 H4           1.5990     0.4580     7.0030 H          1 ASB       0.056783
     69 H5          -0.0390     1.0350     6.8820 H          1 ASB       0.056783
     70 H6           0.6460     0.1790     5.5120 H          1 ASB       0.056783
     71 H7          -1.0080     4.4470     6.5880 H          1 ASB       0.103200
     72 H8          -0.7260     2.8970     7.2920 H          1 ASB       0.103200
     73 H9          -1.5100     3.1580     4.4360 H          1 ASB       0.316500
     74 H10         -3.2040     3.0530     3.1800 H          1 ASB       0.202000
     75 H11         -4.4370     1.8060     1.4830 H          1 ASB       0.195750
     76 H12         -3.9590    -2.0940     2.1520 H          1 ASB       0.195750
     77 H13         -4.2290    -3.2910     0.0430 H          1 ASB       0.202000
     78 H14         -7.4310    -0.5770    -0.9910 H          1 ASB       0.267000
     79 H15         -8.4560     0.5760     0.6590 H          1 ASB       0.117033
     80 H16         -7.6970     0.8510     2.2420 H          1 ASB       0.117033
     81 H17         -7.0750     1.7220     0.7870 H          1 ASB       0.117033
     82 H18         -3.9540    -3.2820    -2.0560 H          1 ASB       0.316500
     83 H19         -5.4630    -3.0050    -4.5940 H          1 ASB       0.103200
     84 H20         -5.1060    -4.5800    -3.9790 H          1 ASB       0.103200
     85 H21         -2.1610    -6.5920    -3.6890 H          1 ASB       0.056783
     86 H22         -3.4040    -5.6740    -2.8900 H          1 ASB       0.056783
     87 H23         -3.6720    -6.3080    -4.5440 H          1 ASB       0.056783
     88 H24         -0.1570    -6.0480    -3.9350 H          1 ASB       0.056783
     89 H25         -0.6030    -6.4640    -5.6210 H          1 ASB       0.056783
     90 H26          0.8080    -5.4660    -5.2430 H          1 ASB       0.056783
     91 H27          0.9040    -4.1670    -6.8390 H          1 ASB       0.103200
     92 H28          0.5850    -2.5220    -7.2650 H          1 ASB       0.103200
     93 H29          1.5630    -3.1520    -4.5430 H          1 ASB       0.316500
     94 H30          3.2340    -3.0100    -3.3010 H          1 ASB       0.202000
     95 H31          4.5030    -1.8460    -1.5770 H          1 ASB       0.195750
     96 H32          3.9880     2.0920    -2.0860 H          1 ASB       0.195750
     97 H33          4.2500     3.1960     0.0710 H          1 ASB       0.202000
     98 H34          7.4550     0.4440     0.9940 H          1 ASB       0.267000
     99 H35          7.1230    -1.7690    -0.8880 H          1 ASB       0.117033
    100 H36          8.4950    -0.6190    -0.7090 H          1 ASB       0.117033
    101 H37          7.7370    -0.8270    -2.3030 H          1 ASB       0.117033
    102 H38          4.0320     3.2390     2.1440 H          1 ASB       0.316500
    103 H39          5.2630     4.2520     4.2370 H          1 ASB       0.103200
    104 H40          5.3750     2.5860     4.6870 H          1 ASB       0.103200
    105 H41          3.9760     5.5630     3.2330 H          1 ASB       0.056783
    106 H42          2.3880     6.2350     3.2400 H          1 ASB       0.056783
    107 H43          3.4470     6.4590     4.6700 H          1 ASB       0.056783
    108 H44          0.9660     6.6920     4.6820 H          1 ASB       0.056783
    109 H45         -0.4970     5.7280     4.6970 H          1 ASB       0.056783
    110 H46          0.3470     6.1510     6.2220 H          1 ASB       0.056783
    111 H47          5.2820     2.3130    -4.4390 H          1 ASB       0.117033
    112 H48          6.8410     1.5100    -4.0050 H          1 ASB       0.117033
    113 H49          6.1900     1.3410    -5.6500 H          1 ASB       0.117033
    114 H50          4.3850     0.0700    -6.1080 H          1 ASB       0.267000
    115 H51         -1.7190     0.0100    -6.1380 H          1 ASB       0.056783
    116 H52         -0.1000    -0.6190    -6.1210 H          1 ASB       0.056783
    117 H53         -1.2010    -1.0170    -7.4750 H          1 ASB       0.056783
    118 H54         -4.0310    -0.7470    -6.1580 H          1 ASB       0.056783
    119 H55         -4.6920    -1.0890    -4.5610 H          1 ASB       0.056783
    120 H56         -3.2510    -0.1320    -4.6650 H          1 ASB       0.056783
    121 H57         -5.2940    -2.2090     4.5070 H          1 ASB       0.117033
    122 H58         -6.8460    -1.4140     4.0310 H          1 ASB       0.117033
    123 H59         -6.2060    -1.1880     5.6740 H          1 ASB       0.117033
    124 H60         -4.4340     0.1230     6.1090 H          1 ASB       0.267000
@<TRIPOS>BOND
     1     1     2 1   
     2     1    65 1   
     3     1    66 1   
     4     1    67 1   
     5     2     3 ar  
     6     2    50 ar  
     7     3     4 1   
     8     3     5 ar  
     9     4    68 1   
    10     4    69 1   
    11     4    70 1   
    12     5     6 1   
    13     5    53 ar  
    14     6     7 1   
    15     6    71 1   
    16     6    72 1   
    17     7     8 1   
    18     7    73 1   
    19     8     9 2   
    20     8    10 1   
    21    10    11 1   
    22    10    64 2   
    23    11    12 2   
    24    11    74 1   
    25    12    13 1   
    26    12    75 1   
    27    13    14 2   
    28    13    62 1   
    29    14    15 1   
    30    14    19 1   
    31    15    16 2   
    32    15    76 1   
    33    16    17 1   
    34    16    77 1   
    35    17    18 2   
    36    17    21 1   
    37    18    19 1   
    38    18    78 1   
    39    19    20 1   
    40    20    79 1   
    41    20    80 1   
    42    20    81 1   
    43    21    22 2   
    44    21    23 1   
    45    23    24 1   
    46    23    82 1   
    47    24    25 1   
    48    24    83 1   
    49    24    84 1   
    50    25    26 ar  
    51    25    60 ar  
    52    26    27 1   
    53    26    28 ar  
    54    27    85 1   
    55    27    86 1   
    56    27    87 1   
    57    28    29 1   
    58    28    30 ar  
    59    29    88 1   
    60    29    89 1   
    61    29    90 1   
    62    30    31 1   
    63    30    58 ar  
    64    31    32 1   
    65    31    91 1   
    66    31    92 1   
    67    32    33 1   
    68    32    93 1   
    69    33    34 2   
    70    33    35 1   
    71    35    36 1   
    72    35    57 2   
    73    36    37 2   
    74    36    94 1   
    75    37    38 1   
    76    37    95 1   
    77    38    39 2   
    78    38    55 1   
    79    39    40 1   
    80    39    44 1   
    81    40    41 2   
    82    40    96 1   
    83    41    42 1   
    84    41    97 1   
    85    42    43 2   
    86    42    46 1   
    87    43    44 1   
    88    43    98 1   
    89    44    45 1   
    90    45    99 1   
    91    45   100 1   
    92    45   101 1   
    93    46    47 2   
    94    46    48 1   
    95    48    49 1   
    96    48   102 1   
    97    49    50 1   
    98    49   103 1   
    99    49   104 1   
   100    50    51 ar  
   101    51    52 1   
   102    51    53 ar  
   103    52   105 1   
   104    52   106 1   
   105    52   107 1   
   106    53    54 1   
   107    54   108 1   
   108    54   109 1   
   109    54   110 1   
   110    55    56 1   
   111    55    57 1   
   112    56   111 1   
   113    56   112 1   
   114    56   113 1   
   115    57   114 1   
   116    58    59 1   
   117    58    60 ar  
   118    59   115 1   
   119    59   116 1   
   120    59   117 1   
   121    60    61 1   
   122    61   118 1   
   123    61   119 1   
   124    61   120 1   
   125    62    63 1   
   126    62    64 1   
   127    63   121 1   
   128    63   122 1   
   129    63   123 1   
   130    64   124 1   
@<TRIPOS>SUBSTRUCTURE
     1 ASB         1 TEMP              0 ****  ****    0 ROOT
