@<TRIPOS>MOLECULE
ASB
  112   118     1     0     0
SMALL
bcc


@<TRIPOS>ATOM
      1 C           -3.5760     0.1990     0.1240 C          0 ASB      -0.104800
      2 C1          -5.0790     0.3090     0.0710 C          0 ASB       0.111700
      3 C2          -5.7040     1.5580     0.0250 C          0 ASB      -0.186850
      4 C3          -7.1090     1.6100     0.0410 C          0 ASB       0.087400
      5 C4          -7.8000     2.9490     0.0180 C          0 ASB      -0.100550
      6 N           -7.8280     0.5180     0.0740 N          0 ASB      -0.000100
      7 C5          -9.2880     0.6250     0.1020 C          0 ASB      -0.035900
      8 C6          -7.2740    -0.6720     0.0820 C          0 ASB       0.087400
      9 C7          -8.1550    -1.8930     0.1090 C          0 ASB      -0.100550
     10 C8          -5.8790    -0.8330     0.0590 C          0 ASB      -0.186850
     11 C9          -5.3800    -2.1950    -0.0400 C           0 ASB       0.662200
     12 O           -6.2310    -3.0310    -0.2750 O           0 ASB      -0.559600
     13 N1          -4.1350    -2.6830     0.0840 N           0 ASB      -0.550150
     14 C10         -3.7600    -3.6780    -0.9320 C          0 ASB       0.130300
     15 C11         -3.0990    -4.8850    -0.3330 C          0 ASB      -0.131300
     16 C12         -1.7240    -4.9910    -0.3870 C          0 ASB      -0.106250
     17 C13         -1.0910    -6.1340     0.0800 C          0 ASB      -0.039750
     18 C14         -1.8520    -7.1650     0.6430 C          0 ASB      -0.101000
     19 C15         -3.2230    -7.0210     0.7360 C          0 ASB      -0.121250
     20 C16         -3.8490    -5.8890     0.2510 C          0 ASB      -0.110250
     21 C17          0.3800    -6.2720     0.0130 C          0 ASB      -0.039750
     22 C18          0.9640    -7.4640    -0.4010 C          0 ASB      -0.101000
     23 C19          2.3390    -7.5710    -0.4540 C          0 ASB      -0.121250
     24 C20          3.1370    -6.5180    -0.0480 C          0 ASB      -0.110250
     25 C21          2.5600    -5.3470     0.4050 C          0 ASB      -0.131300
     26 C22          3.4240    -4.2540     0.9640 C          0 ASB       0.130300
     27 N2           4.2980    -3.6620    -0.0660 N           0 ASB      -0.550150
     28 C23          4.2190    -2.3190    -0.1770 C           0 ASB       0.662200
     29 O1           3.1030    -1.8530    -0.3000 O           0 ASB      -0.559600
     30 C24          5.3200    -1.3660    -0.1650 C          0 ASB      -0.186850
     31 C25          6.6560    -1.7720    -0.1710 C          0 ASB       0.087400
     32 C26          6.9870    -3.2420    -0.2060 C          0 ASB      -0.100550
     33 N3           7.6280    -0.8890    -0.1470 N          0 ASB      -0.000100
     34 C27          9.0140    -1.3630    -0.1740 C          0 ASB      -0.035900
     35 C28          7.4010     0.4090    -0.1000 C          0 ASB       0.087400
     36 C29          8.5620     1.3700    -0.0840 C          0 ASB      -0.100550
     37 C30          6.0950     0.9010    -0.0660 C          0 ASB      -0.186850
     38 C31          5.0280     0.0020    -0.1200 C          0 ASB       0.111700
     39 C32          3.6030     0.4910    -0.1320 C          0 ASB      -0.104800
     40 C33          5.8250     2.3350     0.0970 C           0 ASB       0.662200
     41 O2           6.7380     3.0990     0.3390 O           0 ASB      -0.559600
     42 N4           4.5530     2.8140    -0.0230 N           0 ASB      -0.550150
     43 C34          4.1340     3.7700     1.0030 C          0 ASB       0.130300
     44 C35          3.3790     4.9310     0.4240 C          0 ASB      -0.131300
     45 C36          2.0010     4.9620     0.4980 C          0 ASB      -0.106250
     46 C37          1.3000     6.0710     0.0450 C          0 ASB      -0.039750
     47 C38          1.9950     7.1400    -0.5310 C          0 ASB      -0.101000
     48 C39          3.3690     7.0710    -0.6490 C          0 ASB      -0.121250
     49 C40          4.0630     5.9740    -0.1750 C          0 ASB      -0.110250
     50 C41         -0.1750     6.1460     0.1280 C          0 ASB      -0.039750
     51 C42         -0.8110     7.2900     0.5960 C          0 ASB      -0.101000
     52 C43         -2.1900     7.3360     0.6340 C          0 ASB      -0.121250
     53 C44         -2.9390     6.2620     0.1810 C          0 ASB      -0.110250
     54 C45         -2.3090     5.1340    -0.3020 C          0 ASB      -0.131300
     55 C46         -3.0990     3.9950    -0.8880 C          0 ASB       0.130300
     56 N5          -3.7400     3.1810     0.1550 N           0 ASB      -0.550150
     57 C47         -5.0010     2.8180    -0.0870 C           0 ASB       0.662200
     58 O3          -5.7000     3.7260    -0.4930 O           0 ASB      -0.559600
     59 C48         -0.9280     5.0510    -0.2960 C          0 ASB      -0.106250
     60 C49          1.1870    -5.1980     0.3930 C          0 ASB      -0.106250
     61 H           -3.2490     0.1920     1.1640 H          0 ASB       0.093367
     62 H1          -3.2620    -0.7250    -0.3620 H          0 ASB       0.093367
     63 H2          -3.1310     1.0500    -0.3910 H          0 ASB       0.093367
     64 H3          -7.8770     3.3010    -1.0100 H          0 ASB       0.099783
     65 H4          -8.7980     2.8500     0.4440 H          0 ASB       0.099783
     66 H5          -7.2240     3.6650     0.6050 H          0 ASB       0.099783
     67 H6          -9.6780     0.5580    -0.9140 H          0 ASB       0.100033
     68 H7          -9.7000    -0.1850     0.7040 H          0 ASB       0.100033
     69 H8          -9.5740     1.5830     0.5380 H          0 ASB       0.100033
     70 H9          -8.2720    -2.2800    -0.9030 H          0 ASB       0.099783
     71 H10         -7.6990    -2.6570     0.7390 H          0 ASB       0.099783
     72 H11         -9.1330    -1.6270     0.5120 H          0 ASB       0.099783
     73 H12         -3.5310    -2.4010     0.7880 H          0 ASB       0.319250
     74 H13         -4.6570    -3.9940    -1.4640 H          0 ASB       0.079950
     75 H14         -3.0740    -3.2160    -1.6420 H          0 ASB       0.079950
     76 H15         -1.1380    -4.1810    -0.7950 H          0 ASB       0.136000
     77 H16         -1.3730    -8.0640     1.0010 H          0 ASB       0.147000
     78 H17         -3.8120    -7.8030     1.1930 H          0 ASB       0.150250
     79 H18         -4.9220    -5.7890     0.3270 H          0 ASB       0.139250
     80 H19          0.3440    -8.3020    -0.6810 H          0 ASB       0.147000
     81 H20          2.7940    -8.4830    -0.8120 H          0 ASB       0.150250
     82 H21          4.2120    -6.6100    -0.0860 H          0 ASB       0.139250
     83 H22          2.7850    -3.4740     1.3780 H          0 ASB       0.079950
     84 H23          4.0430    -4.6640     1.7620 H          0 ASB       0.079950
     85 H24          4.8860    -4.1980    -0.6220 H          0 ASB       0.319250
     86 H25          6.9870    -3.5900    -1.2390 H          0 ASB       0.099783
     87 H26          7.9710    -3.4030     0.2320 H          0 ASB       0.099783
     88 H27          6.2400    -3.7950     0.3640 H          0 ASB       0.099783
     89 H28          9.3750    -1.3710    -1.2030 H          0 ASB       0.100033
     90 H29          9.6370    -0.7000     0.4250 H          0 ASB       0.100033
     91 H30          9.0600    -2.3730     0.2340 H          0 ASB       0.100033
     92 H31          8.7440     1.7360    -1.0950 H          0 ASB       0.099783
     93 H32          8.3290     2.2100     0.5700 H          0 ASB       0.099783
     94 H33          9.4510     0.8590     0.2830 H          0 ASB       0.099783
     95 H34          3.2760     0.6350    -1.1610 H          0 ASB       0.093367
     96 H35          2.9620    -0.2450     0.3540 H          0 ASB       0.093367
     97 H36          3.5400     1.4380     0.4050 H          0 ASB       0.093367
     98 H37          3.9640     2.5390    -0.7430 H          0 ASB       0.319250
     99 H38          3.4960     3.2580     1.7240 H          0 ASB       0.079950
    100 H39          5.0180     4.1440     1.5200 H          0 ASB       0.079950
    101 H40          1.4660     4.1190     0.9110 H          0 ASB       0.136000
    102 H41          1.4610     8.0120    -0.8810 H          0 ASB       0.147000
    103 H42          3.9060     7.8820    -1.1170 H          0 ASB       0.150250
    104 H43          5.1380     5.9320    -0.2720 H          0 ASB       0.139250
    105 H44         -0.2300     8.1380     0.9270 H          0 ASB       0.147000
    106 H45         -2.6880     8.2130     1.0200 H          0 ASB       0.150250
    107 H46         -4.0180     6.3080     0.2070 H          0 ASB       0.139250
    108 H47         -3.8690     4.3990    -1.5460 H          0 ASB       0.079950
    109 H48         -2.4300     3.3630    -1.4720 H          0 ASB       0.079950
    110 H49         -3.2810     2.9260     0.9700 H          0 ASB       0.319250
    111 H50         -0.4370     4.1450    -0.6160 H          0 ASB       0.136000
    112 H51          0.7400    -4.2560     0.6750 H          0 ASB       0.136000
@<TRIPOS>BOND
     1     1     2 1   
     2     1    61 1   
     3     1    62 1   
     4     1    63 1   
     5     2     3 ar  
     6     2    10 ar  
     7     3     4 ar  
     8     3    57 1   
     9     4     5 1   
    10     4     6 1   
    11     5    64 1   
    12     5    65 1   
    13     5    66 1   
    14     6     7 1   
    15     6     8 2   
    16     7    67 1   
    17     7    68 1   
    18     7    69 1   
    19     8     9 1   
    20     8    10 ar  
    21     9    70 1   
    22     9    71 1   
    23     9    72 1   
    24    10    11 1   
    25    11    12 2   
    26    11    13 1   
    27    13    14 1   
    28    13    73 1   
    29    14    15 1   
    30    14    74 1   
    31    14    75 1   
    32    15    16 ar  
    33    15    20 ar  
    34    16    17 ar  
    35    16    76 1   
    36    17    18 ar  
    37    17    21 1   
    38    18    19 ar  
    39    18    77 1   
    40    19    20 ar  
    41    19    78 1   
    42    20    79 1   
    43    21    22 ar  
    44    21    60 ar  
    45    22    23 ar  
    46    22    80 1   
    47    23    24 ar  
    48    23    81 1   
    49    24    25 ar  
    50    24    82 1   
    51    25    26 1   
    52    25    60 ar  
    53    26    27 1   
    54    26    83 1   
    55    26    84 1   
    56    27    28 1   
    57    27    85 1   
    58    28    29 2   
    59    28    30 1   
    60    30    31 ar  
    61    30    38 ar  
    62    31    32 1   
    63    31    33 2   
    64    32    86 1   
    65    32    87 1   
    66    32    88 1   
    67    33    34 1   
    68    33    35 1   
    69    34    89 1   
    70    34    90 1   
    71    34    91 1   
    72    35    36 1   
    73    35    37 ar  
    74    36    92 1   
    75    36    93 1   
    76    36    94 1   
    77    37    38 ar  
    78    37    40 1   
    79    38    39 1   
    80    39    95 1   
    81    39    96 1   
    82    39    97 1   
    83    40    41 2   
    84    40    42 1   
    85    42    43 1   
    86    42    98 1   
    87    43    44 1   
    88    43    99 1   
    89    43   100 1   
    90    44    45 ar  
    91    44    49 ar  
    92    45    46 ar  
    93    45   101 1   
    94    46    47 ar  
    95    46    50 1   
    96    47    48 ar  
    97    47   102 1   
    98    48    49 ar  
    99    48   103 1   
   100    49   104 1   
   101    50    51 ar  
   102    50    59 ar  
   103    51    52 ar  
   104    51   105 1   
   105    52    53 ar  
   106    52   106 1   
   107    53    54 ar  
   108    53   107 1   
   109    54    55 1   
   110    54    59 ar  
   111    55    56 1   
   112    55   108 1   
   113    55   109 1   
   114    56    57 1   
   115    56   110 1   
   116    57    58 2   
   117    59   111 1   
   118    60   112 1   
@<TRIPOS>SUBSTRUCTURE
     1 ASB         1 TEMP              0 ****  ****    0 ROOT
