@<TRIPOS>MOLECULE
URE
   84    88     1     0     0
SMALL
bcc


@<TRIPOS>ATOM
      1 O           -5.0370    -6.6080     0.6530 O           0 URE      -0.836425
      2 C           -4.0080    -6.0590     1.0080 C           0 URE       0.909850
      3 O1          -3.4300    -6.4370     2.0130 O           0 URE      -0.836425
      4 C1          -3.4480    -4.9150     0.2020 C          0 URE      -0.029800
      5 C2          -4.0250    -3.5940     0.7120 C          0 URE       0.016700
      6 S           -4.9020    -2.7460    -0.6250 S          0 URE      -0.236100
      7 S1          -5.8710    -1.2790     0.4500 S          0 URE      -0.236100
      8 C3          -6.4720    -0.2360    -0.9020 C          0 URE       0.016700
      9 C4          -7.1540     1.0070    -0.3270 C          0 URE      -0.029800
     10 N           -6.3630     2.1960    -0.7170 N           0 URE      -0.510400
     11 C5          -5.9120     2.9820     0.3030 C           0 URE       0.666200
     12 O2          -6.4570     2.9610     1.3890 O           0 URE      -0.645100
     13 C6          -4.7550     3.8530     0.0620 C          0 URE      -0.119600
     14 C7          -4.3790     4.2570    -1.2370 C          0 URE      -0.098750
     15 C8          -3.1850     4.8790    -1.4490 C          0 URE      -0.130750
     16 C9          -2.2950     5.1110    -0.3830 C          0 URE      -0.038500
     17 C10         -0.9540     5.4740    -0.5880 C          0 URE      -0.091000
     18 C11         -0.0980     5.6420     0.5000 C          0 URE      -0.119600
     19 C12         -0.6380     5.6590     1.8030 C          0 URE      -0.098750
     20 C13         -1.9420     5.3250     2.0170 C          0 URE      -0.130750
     21 C14         -2.7610     4.9220     0.9460 C          0 URE      -0.038500
     22 C15         -3.9820     4.2630     1.1520 C          0 URE      -0.091000
     23 C16          1.3550     5.6950     0.2710 C           0 URE       0.666200
     24 O3           1.7950     6.0490    -0.8050 O           0 URE      -0.645100
     25 N1           2.2010     5.3430     1.2790 N           0 URE      -0.510400
     26 C17          3.6110     5.0970     0.9120 C          0 URE      -0.029800
     27 C18          3.8940     3.6000     1.0180 C          0 URE       0.016700
     28 S2           5.4010     3.1960     0.0850 S          0 URE      -0.236100
     29 S3           5.8090     1.3480     0.8770 S          0 URE      -0.236100
     30 C19          6.3940     0.4870    -0.6020 C          0 URE       0.016700
     31 C20          7.0170    -0.8580    -0.2170 C          0 URE      -0.029800
     32 N2           6.0310    -1.9310    -0.4700 N           0 URE      -0.510400
     33 C21          5.9460    -2.9170     0.4720 C           0 URE       0.666200
     34 O4           6.8060    -3.0420     1.3220 O           0 URE      -0.645100
     35 C22          4.7850    -3.8240     0.4340 C          0 URE      -0.119600
     36 C23          4.4280    -4.5810     1.5710 C          0 URE      -0.098750
     37 C24          3.2300    -5.2250     1.6270 C          0 URE      -0.130750
     38 C25          2.3490    -5.1870     0.5330 C          0 URE      -0.038500
     39 C26          0.9970    -5.5520     0.6330 C          0 URE      -0.091000
     40 C27          0.2070    -5.6180    -0.5070 C          0 URE      -0.119600
     41 C28          0.8190    -5.4580    -1.7790 C          0 URE      -0.098750
     42 C29          2.0950    -4.9940    -1.8710 C          0 URE      -0.130750
     43 C30          2.8470    -4.7190    -0.7170 C          0 URE      -0.038500
     44 C31          4.0240    -3.9520    -0.7310 C          0 URE      -0.091000
     45 C32         -1.2570    -5.7010    -0.4440 C           0 URE       0.666200
     46 O5          -1.8360    -6.5280    -1.1220 O           0 URE      -0.645100
     47 N3          -1.9730    -4.8720     0.3540 N           0 URE      -0.510400
     48 C33          8.2510    -1.0990    -1.0490 C           0 URE       0.909850
     49 O6           9.3380    -0.7140    -0.6530 O           0 URE      -0.836425
     50 O7           8.1610    -1.6790    -2.1180 O           0 URE      -0.836425
     51 C34          3.8530     5.5580    -0.5020 C           0 URE       0.909850
     52 O8           4.3420     6.6560    -0.7100 O           0 URE      -0.836425
     53 O9           3.5600     4.8340    -1.4380 O           0 URE      -0.836425
     54 C35         -8.5500     1.1220    -0.8820 C           0 URE       0.909850
     55 O10         -9.4830     0.5940    -0.3010 O           0 URE      -0.836425
     56 O11         -8.7470     1.7430    -1.9130 O           0 URE      -0.836425
     57 H           -3.7060    -5.0470    -0.8490 H          0 URE       0.087450
     58 H1          -4.7170    -3.7930     1.5300 H          0 URE       0.074200
     59 H2          -3.2150    -2.9600     1.0720 H          0 URE       0.074200
     60 H3          -5.6320     0.0670    -1.5270 H          0 URE       0.074200
     61 H4          -7.1870    -0.7980    -1.5030 H          0 URE       0.074200
     62 H5          -7.1960     0.9340     0.7600 H          0 URE       0.087450
     63 H6          -6.1750     2.4040    -1.6460 H          0 URE       0.320250
     64 H7          -5.0420     4.0730    -2.0690 H          0 URE       0.146750
     65 H8          -2.9180     5.1970    -2.4460 H          0 URE       0.129250
     66 H9          -0.5840     5.6240    -1.5920 H          0 URE       0.148000
     67 H10         -0.0130     5.9390     2.6380 H          0 URE       0.146750
     68 H11         -2.3490     5.3700     3.0160 H          0 URE       0.129250
     69 H12         -4.3270     4.0710     2.1580 H          0 URE       0.148000
     70 H13          1.8920     5.2570     2.1940 H          0 URE       0.320250
     71 H14          4.2650     5.6410     1.5930 H          0 URE       0.087450
     72 H15          4.0310     3.3290     2.0650 H          0 URE       0.074200
     73 H16          3.0520     3.0420     0.6070 H          0 URE       0.074200
     74 H17          5.5540     0.3160    -1.2760 H          0 URE       0.074200
     75 H18          7.1400     1.1010    -1.1060 H          0 URE       0.074200
     76 H19          7.2830    -0.8480     0.8400 H          0 URE       0.087450
     77 H20          5.4740    -1.9350    -1.2640 H          0 URE       0.320250
     78 H21          5.1120    -4.6500     2.4040 H          0 URE       0.146750
     79 H22          2.9550    -5.7710     2.5180 H          0 URE       0.129250
     80 H23          0.5700    -5.7810     1.5980 H          0 URE       0.148000
     81 H24          0.2700    -5.7060    -2.6760 H          0 URE       0.146750
     82 H25          2.5360    -4.8340    -2.8440 H          0 URE       0.129250
     83 H26          4.3410    -3.4630    -1.6400 H          0 URE       0.148000
     84 H27         -1.5430    -4.2800     0.9920 H          0 URE       0.320250
@<TRIPOS>BOND
     1     1     2 1   
     2     2     3 1   
     3     2     4 1   
     4     4     5 1   
     5     4    47 1   
     6     4    57 1   
     7     5     6 1   
     8     5    58 1   
     9     5    59 1   
    10     6     7 1   
    11     7     8 1   
    12     8     9 1   
    13     8    60 1   
    14     8    61 1   
    15     9    10 1   
    16     9    54 1   
    17     9    62 1   
    18    10    11 1   
    19    10    63 1   
    20    11    12 2   
    21    11    13 1   
    22    13    14 ar  
    23    13    22 ar  
    24    14    15 ar  
    25    14    64 1   
    26    15    16 ar  
    27    15    65 1   
    28    16    17 ar  
    29    16    21 ar  
    30    17    18 ar  
    31    17    66 1   
    32    18    19 ar  
    33    18    23 1   
    34    19    20 ar  
    35    19    67 1   
    36    20    21 ar  
    37    20    68 1   
    38    21    22 ar  
    39    22    69 1   
    40    23    24 2   
    41    23    25 1   
    42    25    26 1   
    43    25    70 1   
    44    26    27 1   
    45    26    51 1   
    46    26    71 1   
    47    27    28 1   
    48    27    72 1   
    49    27    73 1   
    50    28    29 1   
    51    29    30 1   
    52    30    31 1   
    53    30    74 1   
    54    30    75 1   
    55    31    32 1   
    56    31    48 1   
    57    31    76 1   
    58    32    33 1   
    59    32    77 1   
    60    33    34 2   
    61    33    35 1   
    62    35    36 ar  
    63    35    44 ar  
    64    36    37 ar  
    65    36    78 1   
    66    37    38 ar  
    67    37    79 1   
    68    38    39 ar  
    69    38    43 ar  
    70    39    40 ar  
    71    39    80 1   
    72    40    41 ar  
    73    40    45 1   
    74    41    42 ar  
    75    41    81 1   
    76    42    43 ar  
    77    42    82 1   
    78    43    44 ar  
    79    44    83 1   
    80    45    46 2   
    81    45    47 1   
    82    47    84 1   
    83    48    49 1   
    84    48    50 1   
    85    51    52 1   
    86    51    53 1   
    87    54    55 1   
    88    54    56 1   
@<TRIPOS>SUBSTRUCTURE
     1 URE         1 TEMP              0 ****  ****    0 ROOT
