@<TRIPOS>MOLECULE
ASB
   99   103     1     0     0
SMALL
bcc


@<TRIPOS>ATOM
      1 C            7.2920     1.8590    -1.6560 C          0 ASB       0.112200
      2 O            6.2730     2.1660    -0.7020 O          0 ASB      -0.351900
      3 C1           5.7220     0.9830    -0.3230 C          0 ASB       0.177600
      4 C2           6.1880    -0.2050    -0.8640 C          0 ASB      -0.273500
      5 C3           5.6280    -1.4100    -0.4700 C          0 ASB       0.186600
      6 O1           6.0890    -2.5760    -0.9940 O          0 ASB      -0.337400
      7 C4           7.1350    -2.2330    -1.9060 C          0 ASB       0.110700
      8 C5           4.5940    -1.4280     0.4610 C          0 ASB      -0.190300
      9 C6           4.0210    -2.7390     0.9170 C          0 ASB       0.143300
     10 N            2.5900    -2.8600     0.5360 N           0 ASB      -0.540400
     11 C7           2.1800    -4.1360     0.3620 C           0 ASB       0.661200
     12 O2           3.0520    -4.9780     0.2800 O           0 ASB      -0.561600
     13 C8           0.7990    -4.6160     0.2610 C          0 ASB      -0.171600
     14 C9           0.6040    -5.9930     0.0710 C          0 ASB       0.092900
     15 C10          1.8030    -6.8980    -0.0450 C          0 ASB      -0.103300
     16 N1          -0.6000    -6.5080    -0.0080 N          0 ASB       0.008900
     17 C11         -0.7480    -7.9510    -0.2110 C          0 ASB      -0.039400
     18 C12         -1.6750    -5.7600     0.0900 C          0 ASB       0.092900
     19 C13         -3.0330    -6.4060    -0.0040 C          0 ASB      -0.103300
     20 C14         -1.5860    -4.3700     0.2820 C          0 ASB      -0.171600
     21 C15         -0.3180    -3.7880     0.3510 C          0 ASB       0.016000
     22 C16         -2.8400    -3.6270     0.4360 C           0 ASB       0.661200
     23 O3          -3.8660    -4.2770     0.4020 O           0 ASB      -0.561600
     24 N2          -2.9740    -2.2930     0.6140 N           0 ASB      -0.540400
     25 C17         -4.3010    -1.8830     1.1320 C          0 ASB       0.143300
     26 C18         -4.7080    -0.5510     0.5710 C          0 ASB      -0.190300
     27 C19         -4.1210     0.6130     1.0240 C          0 ASB      -0.036500
     28 C20         -4.5260     1.8390     0.5270 C          0 ASB      -0.197800
     29 C21         -3.9270     3.1140     1.0510 C          0 ASB       0.138300
     30 N3          -2.5300     3.2770     0.5760 N           0 ASB      -0.527400
     31 C22         -2.1520     4.5670     0.4050 C           0 ASB       0.653200
     32 O4          -3.0340     5.4020     0.3700 O           0 ASB      -0.549100
     33 C23         -0.7720     5.0450     0.2570 C          0 ASB      -0.168600
     34 C24          0.3410     4.2100     0.3180 C          0 ASB       0.116700
     35 C25          0.1780     2.7210     0.4860 C          0 ASB      -0.111800
     36 C26          1.6110     4.7820     0.2210 C          0 ASB      -0.168600
     37 C27          1.7060     6.1680     0.0130 C          0 ASB       0.008200
     38 N4           0.6330     6.9240    -0.0640 N          0 ASB       0.021900
     39 C28          0.7870     8.3640    -0.2860 C          0 ASB      -0.032400
     40 C29         -0.5730     6.4180     0.0530 C          0 ASB       0.008200
     41 C30          2.8540     4.0210     0.3760 C           0 ASB       0.653200
     42 O5           3.8960     4.6430     0.3060 O           0 ASB      -0.549100
     43 N5           2.9440     2.6870     0.5900 N           0 ASB      -0.527400
     44 C31          4.2230     2.2580     1.2000 C          0 ASB       0.138300
     45 C32          4.6960     0.9610     0.6120 C          0 ASB      -0.197800
     46 C33          4.1230    -0.2370     0.9850 C          0 ASB      -0.036500
     47 C34         -5.5160     1.8950    -0.4470 C          0 ASB       0.177600
     48 O6          -5.9080     3.0950    -0.9480 O          0 ASB      -0.351900
     49 C35         -6.9240     2.8270    -1.9170 C          0 ASB       0.112200
     50 C36         -6.1030     0.7270    -0.9090 C          0 ASB      -0.273500
     51 C37         -5.6980    -0.4960    -0.3990 C          0 ASB       0.186600
     52 O7          -6.2720    -1.6430    -0.8490 O          0 ASB      -0.337400
     53 C38         -7.2410    -1.2640    -1.8290 C          0 ASB       0.110700
     54 H            7.7650     2.7820    -1.9910 H          0 ASB       0.056867
     55 H1           8.0400     1.2150    -1.1940 H          0 ASB       0.056867
     56 H2           6.8490     1.3470    -2.5100 H          0 ASB       0.056867
     57 H3           6.9860    -0.1920    -1.5910 H          0 ASB       0.157500
     58 H4           7.5380    -3.1410    -2.3540 H          0 ASB       0.057367
     59 H5           6.7380    -1.5870    -2.6890 H          0 ASB       0.057367
     60 H6           7.9270    -1.7090    -1.3700 H          0 ASB       0.057367
     61 H7           4.5830    -3.5540     0.4600 H          0 ASB       0.087700
     62 H8           4.1090    -2.8100     2.0010 H          0 ASB       0.087700
     63 H9           2.0050    -2.0950     0.4220 H          0 ASB       0.322500
     64 H10          2.4150    -6.8090     0.8530 H          0 ASB       0.103867
     65 H11          1.4700    -7.9300    -0.1570 H          0 ASB       0.103867
     66 H12          2.3930    -6.6110    -0.9160 H          0 ASB       0.103867
     67 H13         -0.8530    -8.4450     0.7550 H          0 ASB       0.103033
     68 H14         -1.6350    -8.1440    -0.8160 H          0 ASB       0.103033
     69 H15          0.1320    -8.3390    -0.7240 H          0 ASB       0.103033
     70 H16         -3.4380    -6.5490     0.9980 H          0 ASB       0.103867
     71 H17         -3.7020    -5.7640    -0.5780 H          0 ASB       0.103867
     72 H18         -2.9420    -7.3720    -0.5000 H          0 ASB       0.103867
     73 H19         -0.2070    -2.7210     0.4720 H          0 ASB       0.185000
     74 H20         -2.2640    -1.6610     0.4200 H          0 ASB       0.322500
     75 H21         -5.0420    -2.6310     0.8510 H          0 ASB       0.087700
     76 H22         -4.2550    -1.8150     2.2190 H          0 ASB       0.087700
     77 H23         -3.3410     0.5660     1.7700 H          0 ASB       0.154500
     78 H24         -4.5230     3.9590     0.7070 H          0 ASB       0.090950
     79 H25         -3.9340     3.0920     2.1410 H          0 ASB       0.090950
     80 H26         -1.9400     2.5270     0.4040 H          0 ASB       0.320500
     81 H27          0.0960     2.2520    -0.4940 H          0 ASB       0.097367
     82 H28          1.0450     2.3180     1.0100 H          0 ASB       0.097367
     83 H29         -0.7230     2.5170     1.0640 H          0 ASB       0.097367
     84 H30          2.6810     6.6210    -0.0850 H          0 ASB       0.220000
     85 H31          0.7910     8.5690    -1.3570 H          0 ASB       0.104700
     86 H32         -0.0420     8.8950     0.1820 H          0 ASB       0.104700
     87 H33          1.7270     8.7010     0.1520 H          0 ASB       0.104700
     88 H34         -1.4290     7.0730    -0.0100 H          0 ASB       0.220000
     89 H35          2.2330     2.0670     0.3640 H          0 ASB       0.320500
     90 H36          4.9780     3.0250     1.0250 H          0 ASB       0.090950
     91 H37          4.0840     2.1330     2.2740 H          0 ASB       0.090950
     92 H38          3.3010    -0.2450     1.6860 H          0 ASB       0.154500
     93 H39         -7.2720     3.7650    -2.3490 H          0 ASB       0.056867
     94 H40         -6.5170     2.1930    -2.7050 H          0 ASB       0.056867
     95 H41         -7.7590     2.3170    -1.4360 H          0 ASB       0.056867
     96 H42         -6.8730     0.7710    -1.6640 H          0 ASB       0.157500
     97 H43         -7.7300    -2.1550    -2.2210 H          0 ASB       0.057367
     98 H44         -7.9850    -0.6130    -1.3700 H          0 ASB       0.057367
     99 H45         -6.7460    -0.7330    -2.6420 H          0 ASB       0.057367
@<TRIPOS>BOND
     1     1     2 1   
     2     1    54 1   
     3     1    55 1   
     4     1    56 1   
     5     2     3 1   
     6     3     4 ar  
     7     3    45 ar  
     8     4     5 ar  
     9     4    57 1   
    10     5     6 1   
    11     5     8 ar  
    12     6     7 1   
    13     7    58 1   
    14     7    59 1   
    15     7    60 1   
    16     8     9 1   
    17     8    46 ar  
    18     9    10 1   
    19     9    61 1   
    20     9    62 1   
    21    10    11 1   
    22    10    63 1   
    23    11    12 2   
    24    11    13 1   
    25    13    14 ar  
    26    13    21 ar  
    27    14    15 1   
    28    14    16 2   
    29    15    64 1   
    30    15    65 1   
    31    15    66 1   
    32    16    17 1   
    33    16    18 1   
    34    17    67 1   
    35    17    68 1   
    36    17    69 1   
    37    18    19 1   
    38    18    20 ar  
    39    19    70 1   
    40    19    71 1   
    41    19    72 1   
    42    20    21 ar  
    43    20    22 1   
    44    21    73 1   
    45    22    23 2   
    46    22    24 1   
    47    24    25 1   
    48    24    74 1   
    49    25    26 1   
    50    25    75 1   
    51    25    76 1   
    52    26    27 ar  
    53    26    51 ar  
    54    27    28 ar  
    55    27    77 1   
    56    28    29 1   
    57    28    47 ar  
    58    29    30 1   
    59    29    78 1   
    60    29    79 1   
    61    30    31 1   
    62    30    80 1   
    63    31    32 2   
    64    31    33 1   
    65    33    34 ar  
    66    33    40 ar  
    67    34    35 1   
    68    34    36 ar  
    69    35    81 1   
    70    35    82 1   
    71    35    83 1   
    72    36    37 ar  
    73    36    41 1   
    74    37    38 2   
    75    37    84 1   
    76    38    39 1   
    77    38    40 1   
    78    39    85 1   
    79    39    86 1   
    80    39    87 1   
    81    40    88 1   
    82    41    42 2   
    83    41    43 1   
    84    43    44 1   
    85    43    89 1   
    86    44    45 1   
    87    44    90 1   
    88    44    91 1   
    89    45    46 ar  
    90    46    92 1   
    91    47    48 1   
    92    47    50 ar  
    93    48    49 1   
    94    49    93 1   
    95    49    94 1   
    96    49    95 1   
    97    50    51 ar  
    98    50    96 1   
    99    51    52 1   
   100    52    53 1   
   101    53    97 1   
   102    53    98 1   
   103    53    99 1   
@<TRIPOS>SUBSTRUCTURE
     1 ASB         1 TEMP              0 ****  ****    0 ROOT
