@<TRIPOS>MOLECULE
176
  135   144     1     0     0
SMALL
bcc


@<TRIPOS>ATOM
      1 O            0.7140     7.6760     2.2820 O          0 176      -0.509711
      2 C            1.2180     7.4350     1.0450 C          0 176       0.098600
      3 C1           2.5580     7.1350     0.8970 C          0 176      -0.148556
      4 C2           3.0860     6.8840    -0.3560 C          0 176      -0.089911
      5 C3           2.2380     6.8130    -1.4550 C          0 176       0.098600
      6 O1           2.7280     6.4600    -2.6710 O          0 176      -0.509711
      7 C4           0.9010     7.1650    -1.3200 C          0 176      -0.148556
      8 C5           0.4110     7.5470    -0.0810 C          0 176      -0.089911
      9 C6          -0.9210     8.1900     0.0450 C          0 176       0.010978
     10 C7          -2.1760     7.4190     0.1310 C          0 176      -0.089911
     11 C8          -2.8190     7.0440    -1.0400 C          0 176      -0.148556
     12 C9          -4.0570     6.4420    -1.0130 C          0 176       0.098600
     13 O2          -4.6660     6.1030    -2.1840 O          0 176      -0.509711
     14 C10         -4.6730     6.1850     0.2020 C          0 176      -0.089911
     15 C11         -6.0750     5.7080     0.2540 C          0 176       0.010978
     16 C12         -6.4820     4.2970     0.0630 C          0 176      -0.089911
     17 C13         -6.9340     3.8210    -1.1610 C          0 176       0.098600
     18 O3          -6.9130     4.6110    -2.2620 O          0 176      -0.509711
     19 C14         -7.4830     2.5480    -1.2270 C          0 176      -0.148556
     20 C15         -7.5530     1.7330    -0.1060 C          0 176      -0.089911
     21 C16         -8.3130     0.4710    -0.1610 C          0 176       0.010978
     22 C17         -7.7620    -0.8750     0.0800 C          0 176      -0.089911
     23 C18         -7.0810    -1.5230    -0.9390 C          0 176      -0.148556
     24 C19         -6.6570    -2.8300    -0.7940 C          0 176       0.098600
     25 O4          -6.0060    -3.4390    -1.8220 O          0 176      -0.509711
     26 C20         -6.8850    -3.5020     0.3920 C          0 176      -0.089911
     27 C21         -6.5840    -4.9390     0.5860 C          0 176       0.010978
     28 C22         -5.3500    -5.5720     0.0730 C          0 176      -0.089911
     29 C23         -4.1750    -5.4180     0.7820 C          0 176      -0.148556
     30 C24         -3.0020    -6.0470     0.4030 C          0 176       0.098600
     31 O5          -1.8720    -5.8530     1.1350 O          0 176      -0.509711
     32 C25         -3.0070    -6.8540    -0.7210 C          0 176      -0.089911
     33 C26         -1.8480    -7.6670    -1.1930 C          0 176       0.010978
     34 C27         -0.4800    -7.4910    -0.6360 C          0 176      -0.089911
     35 C28         -0.0980    -7.9800     0.6110 C          0 176       0.098600
     36 O6          -0.9950    -8.6010     1.4220 O          0 176      -0.509711
     37 C29          1.2230    -7.8540     0.9910 C          0 176      -0.148556
     38 C30          2.1810    -7.2460     0.1890 C          0 176      -0.089911
     39 C31          3.5810    -7.2740     0.6750 C          0 176       0.010978
     40 C32          4.5300    -6.1670     0.3990 C          0 176      -0.089911
     41 C33          4.7960    -5.2180     1.3840 C          0 176       0.098600
     42 O7           4.1290    -5.2650     2.5710 O          0 176      -0.509711
     43 C34          5.7740    -4.2570     1.1950 C          0 176      -0.148556
     44 C35          6.4820    -4.2170     0.0080 C          0 176      -0.089911
     45 C36          7.6360    -3.3130    -0.2110 C          0 176       0.010978
     46 C37          7.5640    -1.8560    -0.0130 C          0 176      -0.089911
     47 C38          7.6900    -1.3050     1.2620 C          0 176       0.098600
     48 O8           7.7900    -2.1110     2.3540 O          0 176      -0.509711
     49 C39          7.7730     0.0620     1.4080 C          0 176      -0.148556
     50 C40          7.7170     0.9100     0.3120 C          0 176      -0.089911
     51 C41          7.9880     2.3480     0.5500 C          0 176       0.010978
     52 C42          6.9860     3.4040     0.2870 C          0 176      -0.089911
     53 C43          6.1620     3.8990     1.2860 C          0 176       0.098600
     54 O9           6.1970     3.3470     2.5320 O          0 176      -0.509711
     55 C44          5.3320     4.9890     1.0340 C          0 176      -0.148556
     56 C45          5.3010     5.5610    -0.2270 C          0 176      -0.089911
     57 C46          4.5630     6.8120    -0.5230 C          0 176       0.010978
     58 C47          6.0330     4.9690    -1.2540 C          0 176       0.098600
     59 O10          5.9460     5.4600    -2.5200 O          0 176      -0.509711
     60 C48          6.8840     3.9140    -0.9980 C          0 176      -0.148556
     61 C49          7.4510     0.3790    -0.9410 C          0 176       0.098600
     62 O11          7.2970     1.1890    -2.0250 O          0 176      -0.509711
     63 C50          7.3890    -1.0000    -1.0930 C          0 176      -0.148556
     64 C51          6.1240    -5.0930    -1.0170 C          0 176       0.098600
     65 O12          6.7470    -5.0090    -2.2220 O          0 176      -0.509711
     66 C52          5.1710    -6.0690    -0.8200 C          0 176      -0.148556
     67 C53          1.7780    -6.6820    -1.0080 C          0 176       0.098600
     68 O13          2.6570    -6.0260    -1.8130 O          0 176      -0.509711
     69 C54          0.4570    -6.8180    -1.4110 C          0 176      -0.148556
     70 C55         -4.1780    -6.9550    -1.4770 C          0 176      -0.148556
     71 C56         -5.3460    -6.3260    -1.0900 C          0 176       0.098600
     72 O14         -6.4740    -6.4500    -1.8390 O          0 176      -0.509711
     73 C57         -7.4740    -2.8160     1.4580 C          0 176      -0.148556
     74 C58         -7.9160    -1.5140     1.3060 C          0 176       0.098600
     75 O15         -8.5080    -0.8740     2.3480 O          0 176      -0.509711
     76 C59         -6.9390     2.1490     1.0680 C          0 176       0.098600
     77 O16         -6.8940     1.3380     2.1510 O          0 176      -0.509711
     78 C60         -6.4210     3.4310     1.1460 C          0 176      -0.148556
     79 C61         -3.9820     6.4370     1.3790 C          0 176      -0.148556
     80 C62         -2.7430     7.0590     1.3490 C          0 176       0.098600
     81 O17         -2.0830     7.3190     2.5120 O          0 176      -0.509711
     82 H            0.8010     8.6260     2.4400 H          0 176       0.429111
     83 H1           3.1960     7.1010     1.7660 H          0 176       0.146167
     84 H2           2.6580     5.4970    -2.7320 H          0 176       0.429111
     85 H3           0.2510     7.1430    -2.1840 H          0 176       0.146167
     86 H4          -0.8840     8.8540     0.9190 H          0 176       0.068867
     87 H5          -1.0250     8.8730    -0.8110 H          0 176       0.068867
     88 H6          -2.3380     7.2290    -1.9890 H          0 176       0.146167
     89 H7          -4.3860     5.2020    -2.3940 H          0 176       0.429111
     90 H8          -6.4790     6.0230     1.2300 H          0 176       0.068867
     91 H9          -6.6360     6.3010    -0.4860 H          0 176       0.068867
     92 H10         -6.0550     4.4750    -2.6880 H          0 176       0.429111
     93 H11         -7.8650     2.1820    -2.1690 H          0 176       0.146167
     94 H12         -9.1570     0.5960     0.5370 H          0 176       0.068867
     95 H13         -8.7920     0.4410    -1.1530 H          0 176       0.068867
     96 H14         -6.8760    -0.9990    -1.8620 H          0 176       0.146167
     97 H15         -5.0630    -3.2640    -1.6980 H          0 176       0.429111
     98 H16         -6.6100    -5.1290     1.6680 H          0 176       0.068867
     99 H17         -7.4300    -5.5030     0.1730 H          0 176       0.068867
    100 H18         -4.1760    -4.7880     1.6610 H          0 176       0.146167
    101 H19         -1.8580    -6.5400     1.8150 H          0 176       0.429111
    102 H20         -2.1180    -8.7230    -1.0290 H          0 176       0.068867
    103 H21         -1.7920    -7.5450    -2.2810 H          0 176       0.068867
    104 H22         -0.9650    -9.5420     1.2030 H          0 176       0.429111
    105 H23          1.5330    -8.2390     1.9540 H          0 176       0.146167
    106 H24          3.5590    -7.4260     1.7580 H          0 176       0.068867
    107 H25          4.0400    -8.1880     0.2680 H          0 176       0.068867
    108 H26          4.6520    -5.8220     3.1640 H          0 176       0.429111
    109 H27          5.9870    -3.5460     1.9770 H          0 176       0.146167
    110 H28          8.4400    -3.6800     0.4500 H          0 176       0.068867
    111 H29          8.0070    -3.4790    -1.2280 H          0 176       0.068867
    112 H30          8.7320    -2.2820     2.4890 H          0 176       0.429111
    113 H31          7.8780     0.4850     2.3990 H          0 176       0.146167
    114 H32          8.3050     2.4520     1.5940 H          0 176       0.068867
    115 H33          8.8790     2.5990    -0.0450 H          0 176       0.068867
    116 H34          6.8650     3.8340     3.0350 H          0 176       0.429111
    117 H35          4.7200     5.3910     1.8310 H          0 176       0.146167
    118 H36          4.8010     7.1200    -1.5450 H          0 176       0.068867
    119 H37          4.9930     7.5930     0.1270 H          0 176       0.068867
    120 H38          6.6350     6.1340    -2.6070 H          0 176       0.429111
    121 H39          7.4760     3.4920    -1.8000 H          0 176       0.146167
    122 H40          8.1730     1.3020    -2.4170 H          0 176       0.429111
    123 H41          7.2080    -1.4140    -2.0760 H          0 176       0.146167
    124 H42          7.5160    -5.5940    -2.1800 H          0 176       0.429111
    125 H43          4.9320    -6.7580    -1.6180 H          0 176       0.146167
    126 H44          3.0280    -6.6840    -2.4160 H          0 176       0.429111
    127 H45          0.1590    -6.3930    -2.3590 H          0 176       0.146167
    128 H46         -4.1580    -7.5310    -2.3930 H          0 176       0.146167
    129 H47         -6.9480    -7.2240    -1.5040 H          0 176       0.429111
    130 H48         -7.5730    -3.3130     2.4100 H          0 176       0.146167
    131 H49         -7.8040    -0.4290     2.8390 H          0 176       0.429111
    132 H50         -6.0800     0.8200     2.0780 H          0 176       0.429111
    133 H51         -5.9700     3.7590     2.0740 H          0 176       0.146167
    134 H52         -4.4150     6.1530     2.3270 H          0 176       0.146167
    135 H53         -1.5330     6.5460     2.7000 H          0 176       0.429111
@<TRIPOS>BOND
     1     1     2 1   
     2     1    82 1   
     3     2     3 ar  
     4     2     8 ar  
     5     3     4 ar  
     6     3    83 1   
     7     4     5 ar  
     8     4    57 1   
     9     5     6 1   
    10     5     7 ar  
    11     6    84 1   
    12     7     8 ar  
    13     7    85 1   
    14     8     9 1   
    15     9    10 1   
    16     9    86 1   
    17     9    87 1   
    18    10    11 ar  
    19    10    80 ar  
    20    11    12 ar  
    21    11    88 1   
    22    12    13 1   
    23    12    14 ar  
    24    13    89 1   
    25    14    15 1   
    26    14    79 ar  
    27    15    16 1   
    28    15    90 1   
    29    15    91 1   
    30    16    17 ar  
    31    16    78 ar  
    32    17    18 1   
    33    17    19 ar  
    34    18    92 1   
    35    19    20 ar  
    36    19    93 1   
    37    20    21 1   
    38    20    76 ar  
    39    21    22 1   
    40    21    94 1   
    41    21    95 1   
    42    22    23 ar  
    43    22    74 ar  
    44    23    24 ar  
    45    23    96 1   
    46    24    25 1   
    47    24    26 ar  
    48    25    97 1   
    49    26    27 1   
    50    26    73 ar  
    51    27    28 1   
    52    27    98 1   
    53    27    99 1   
    54    28    29 ar  
    55    28    71 ar  
    56    29    30 ar  
    57    29   100 1   
    58    30    31 1   
    59    30    32 ar  
    60    31   101 1   
    61    32    33 1   
    62    32    70 ar  
    63    33    34 1   
    64    33   102 1   
    65    33   103 1   
    66    34    35 ar  
    67    34    69 ar  
    68    35    36 1   
    69    35    37 ar  
    70    36   104 1   
    71    37    38 ar  
    72    37   105 1   
    73    38    39 1   
    74    38    67 ar  
    75    39    40 1   
    76    39   106 1   
    77    39   107 1   
    78    40    41 ar  
    79    40    66 ar  
    80    41    42 1   
    81    41    43 ar  
    82    42   108 1   
    83    43    44 ar  
    84    43   109 1   
    85    44    45 1   
    86    44    64 ar  
    87    45    46 1   
    88    45   110 1   
    89    45   111 1   
    90    46    47 ar  
    91    46    63 ar  
    92    47    48 1   
    93    47    49 ar  
    94    48   112 1   
    95    49    50 ar  
    96    49   113 1   
    97    50    51 1   
    98    50    61 ar  
    99    51    52 1   
   100    51   114 1   
   101    51   115 1   
   102    52    53 ar  
   103    52    60 ar  
   104    53    54 1   
   105    53    55 ar  
   106    54   116 1   
   107    55    56 ar  
   108    55   117 1   
   109    56    57 1   
   110    56    58 ar  
   111    57   118 1   
   112    57   119 1   
   113    58    59 1   
   114    58    60 ar  
   115    59   120 1   
   116    60   121 1   
   117    61    62 1   
   118    61    63 ar  
   119    62   122 1   
   120    63   123 1   
   121    64    65 1   
   122    64    66 ar  
   123    65   124 1   
   124    66   125 1   
   125    67    68 1   
   126    67    69 ar  
   127    68   126 1   
   128    69   127 1   
   129    70    71 ar  
   130    70   128 1   
   131    71    72 1   
   132    72   129 1   
   133    73    74 ar  
   134    73   130 1   
   135    74    75 1   
   136    75   131 1   
   137    76    77 1   
   138    76    78 ar  
   139    77   132 1   
   140    78   133 1   
   141    79    80 ar  
   142    79   134 1   
   143    80    81 1   
   144    81   135 1   
@<TRIPOS>SUBSTRUCTURE
     1 176         1 TEMP              0 ****  ****    0 ROOT
