@<TRIPOS>MOLECULE
110
  132   146     1     0     0
SMALL
bcc


@<TRIPOS>ATOM
      1 O           -8.0740     3.1740    -2.1150 O           0 110      -0.318250
      2 C           -8.0450     2.5180    -1.0930 C          0 110       0.363250
      3 N           -8.0970     3.1360     0.1030 N           0 110      -0.336500
      4 C1          -8.1220     4.5870     0.1520 C          0 110      -0.011000
      5 C2          -6.7610     5.2090     0.0440 C          0 110       0.027500
      6 C3          -6.1740     5.3930    -1.2020 C          0 110      -0.124000
      7 C4          -5.0040     6.1220    -1.2890 C          0 110      -0.010000
      8 N1          -4.4340     6.6230    -0.2050 N          0 110      -0.040000
      9 C5          -3.4440     7.6450    -0.3700 C          0 110      -0.028500
     10 C6          -1.9960     7.3960    -0.2070 C          0 110      -0.112500
     11 C7          -1.1820     7.3570    -1.3400 C          0 110      -0.097250
     12 C8           0.1830     7.4160    -1.1980 C          0 110      -0.097250
     13 C9           0.7570     7.4770     0.0620 C          0 110      -0.112500
     14 C10          2.1580     7.9020     0.2380 C          0 110      -0.028500
     15 N2           3.2940     7.0380     0.1720 N          0 110      -0.040000
     16 C11          3.7140     6.5220    -0.9700 C          0 110      -0.010000
     17 C12          4.9700     5.9470    -1.0680 C          0 110      -0.124000
     18 C13          5.7670     5.8750     0.0630 C          0 110       0.027500
     19 C14          7.2150     5.4850    -0.0120 C          0 110      -0.011000
     20 N3           7.4440     4.0510    -0.0210 N           0 110      -0.336500
     21 C15          7.4200     3.3940    -1.2030 C          0 110       0.363250
     22 O1           7.2580     4.0120    -2.2370 O           0 110      -0.318250
     23 C16          7.5910     1.9300    -1.2380 C          0 110      -0.095500
     24 C17          7.5520     1.2080    -2.4220 C          0 110      -0.044500
     25 C18          7.6020    -0.1820    -2.4010 C          0 110      -0.044500
     26 C19          7.6960    -0.8830    -1.2070 C          0 110      -0.095500
     27 C20          7.6410    -2.3570    -1.1410 C          0 110       0.363250
     28 O2           7.4810    -3.0010    -2.1590 O           0 110      -0.318250
     29 N4           7.7660    -2.9940     0.0420 N           0 110      -0.336500
     30 C21          7.8380    -4.4430     0.0710 C          0 110      -0.011000
     31 C22          6.5370    -5.1790    -0.0140 C          0 110       0.027500
     32 C23          5.9610    -5.4680    -1.2480 C          0 110      -0.124000
     33 C24          4.8620    -6.2990    -1.2890 C          0 110      -0.010000
     34 N5           4.3470    -6.8050    -0.1820 N          0 110      -0.040000
     35 C25          3.4770    -7.9420    -0.2860 C          0 110      -0.028500
     36 C26          2.0090    -7.7690    -0.1520 C          0 110      -0.112500
     37 C27          1.2180    -7.5620    -1.2730 C          0 110      -0.097250
     38 C28         -0.1590    -7.6250    -1.1490 C          0 110      -0.097250
     39 C29         -0.7460    -7.8620     0.0780 C          0 110      -0.112500
     40 C30         -2.1800    -8.2190     0.1700 C          0 110      -0.028500
     41 N6          -3.2010    -7.2170     0.1280 N          0 110      -0.040000
     42 C31         -3.5440    -6.6200    -1.0000 C          0 110      -0.010000
     43 C32         -4.7350    -5.9360    -1.1070 C          0 110      -0.124000
     44 C33         -5.5450    -5.8140     0.0180 C          0 110       0.027500
     45 C34         -6.9460    -5.2900    -0.0830 C          0 110      -0.011000
     46 N7          -7.1290    -3.8510    -0.0450 N           0 110      -0.336500
     47 C35         -7.1980    -3.1700    -1.2120 C          0 110       0.363250
     48 O3          -6.9860    -3.7480    -2.2600 O           0 110      -0.318250
     49 C36         -7.5280    -1.7320    -1.2230 C          0 110      -0.095500
     50 C37         -7.6500    -1.0070    -2.3980 C          0 110      -0.044500
     51 C38         -7.8640     0.3660    -2.3730 C          0 110      -0.044500
     52 C39         -7.9600     1.0470    -1.1660 C          0 110      -0.095500
     53 C40         -7.9480     0.3140     0.0430 C          0 110      -0.004000
     54 C41         -8.1020     0.9840     1.2790 C          0 110      -0.095500
     55 C42         -8.1090     0.2410     2.4520 C          0 110      -0.044500
     56 C43         -7.8780    -1.1330     2.4230 C          0 110      -0.044500
     57 C44         -7.6470    -1.7980     1.2290 C          0 110      -0.095500
     58 C45         -7.2980    -3.2370     1.1490 C          0 110       0.363250
     59 O4          -7.1640    -3.8790     2.1730 O           0 110      -0.318250
     60 C46         -7.7160    -1.0750     0.0130 C          0 110      -0.004000
     61 C47         -8.1590     2.4550     1.2680 C          0 110       0.363250
     62 O5          -8.2750     3.0610     2.3150 O           0 110      -0.318250
     63 C48         -5.0230    -6.2360     1.2380 C          0 110      -0.124000
     64 C49         -3.8300    -6.9180     1.2650 C          0 110      -0.010000
     65 C50          0.0350    -7.8550     1.2250 C          0 110      -0.097250
     66 C51          1.4140    -7.8150     1.1010 C          0 110      -0.097250
     67 C52          4.7310    -6.3720     1.0090 C          0 110      -0.010000
     68 C53          5.8540    -5.5770     1.1280 C          0 110      -0.124000
     69 C54          7.8960    -2.3220     1.2090 C          0 110       0.363250
     70 O6           7.9400    -2.9380     2.2560 O           0 110      -0.318250
     71 C55          7.9860    -0.8510     1.2250 C          0 110      -0.095500
     72 C56          7.8390    -0.1590    -0.0000 C          0 110      -0.004000
     73 C57          7.7900     1.2440    -0.0200 C          0 110      -0.004000
     74 C58          7.9210     1.9640     1.1890 C          0 110      -0.095500
     75 C59          8.1640     1.2730     2.3640 C          0 110      -0.044500
     76 C60          8.1980    -0.1180     2.3860 C          0 110      -0.044500
     77 C61          7.7190     3.4240     1.1420 C          0 110       0.363250
     78 O7           7.8030     4.0720     2.1670 O           0 110      -0.318250
     79 C62          5.2010     6.2130     1.2870 C          0 110      -0.124000
     80 C63          3.9500     6.7940     1.3050 C          0 110      -0.010000
     81 C64         -0.0420     7.2380     1.1780 C          0 110      -0.097250
     82 C65         -1.4150     7.2030     1.0390 C          0 110      -0.097250
     83 C66         -4.8550     6.2860     1.0040 C          0 110      -0.010000
     84 C67         -6.0390     5.5830     1.1680 C          0 110      -0.124000
     85 H           -8.7400     4.9540    -0.6680 H          0 110       0.151500
     86 H1          -8.5760     4.8980     1.0930 H          0 110       0.151500
     87 H2          -6.6240     4.9720    -2.0880 H          0 110       0.219250
     88 H3          -4.5490     6.2860    -2.2540 H          0 110       0.208750
     89 H4          -3.5810     8.0550    -1.3710 H          0 110       0.154500
     90 H5          -3.7040     8.4470     0.3220 H          0 110       0.154500
     91 H6          -1.6230     7.2810    -2.3220 H          0 110       0.156750
     92 H7           0.8140     7.4160    -2.0740 H          0 110       0.156750
     93 H8           2.3310     8.6900    -0.4960 H          0 110       0.154500
     94 H9           2.2070     8.3960     1.2080 H          0 110       0.154500
     95 H10          3.0700     6.5480    -1.8360 H          0 110       0.208750
     96 H11          5.3230     5.5600    -2.0130 H          0 110       0.219250
     97 H12          7.6420     5.9090    -0.9210 H          0 110       0.151500
     98 H13          7.7350     5.9140     0.8450 H          0 110       0.151500
     99 H14          7.4830     1.7280    -3.3660 H          0 110       0.187750
    100 H15          7.5660    -0.7270    -3.3330 H          0 110       0.187750
    101 H16          8.4650    -4.7660    -0.7610 H          0 110       0.151500
    102 H17          8.3330    -4.7380     0.9960 H          0 110       0.151500
    103 H18          6.3670    -5.0480    -2.1570 H          0 110       0.219250
    104 H19          4.4150    -6.5420    -2.2420 H          0 110       0.208750
    105 H20          3.6610    -8.4040    -1.2550 H          0 110       0.154500
    106 H21          3.7900    -8.6600     0.4720 H          0 110       0.154500
    107 H22          1.6710    -7.3530    -2.2300 H          0 110       0.156750
    108 H23         -0.7810    -7.4880    -2.0210 H          0 110       0.156750
    109 H24         -2.3870    -8.9190    -0.6390 H          0 110       0.154500
    110 H25         -2.3130    -8.7720     1.1000 H          0 110       0.154500
    111 H26         -2.8800    -6.6680    -1.8510 H          0 110       0.208750
    112 H27         -5.0350    -5.5020    -2.0490 H          0 110       0.219250
    113 H28         -7.3730    -5.6570    -1.0170 H          0 110       0.151500
    114 H29         -7.5230    -5.7220     0.7350 H          0 110       0.151500
    115 H30         -7.5760    -1.5170    -3.3480 H          0 110       0.187750
    116 H31         -7.9590     0.9100    -3.3010 H          0 110       0.187750
    117 H32         -8.2940     0.7320     3.3960 H          0 110       0.187750
    118 H33         -7.8790    -1.6900     3.3480 H          0 110       0.187750
    119 H34         -5.5510    -6.0280     2.1560 H          0 110       0.219250
    120 H35         -3.4000    -7.2140     2.2110 H          0 110       0.208750
    121 H36         -0.4260    -7.8800     2.2020 H          0 110       0.156750
    122 H37          2.0320    -7.8190     1.9870 H          0 110       0.156750
    123 H38          4.1650    -6.6410     1.8880 H          0 110       0.208750
    124 H39          6.1990    -5.2660     2.1040 H          0 110       0.219250
    125 H40          8.3300     1.8220     3.2790 H          0 110       0.187750
    126 H41          8.3930    -0.6340     3.3150 H          0 110       0.187750
    127 H42          5.7330     6.0250     2.2080 H          0 110       0.219250
    128 H43          3.4970     7.0530     2.2500 H          0 110       0.208750
    129 H44          0.4100     7.0810     2.1460 H          0 110       0.156750
    130 H45         -2.0390     7.0250     1.9020 H          0 110       0.156750
    131 H46         -4.2710     6.5610     1.8690 H          0 110       0.208750
    132 H47         -6.3950     5.3320     2.1570 H          0 110       0.219250
@<TRIPOS>BOND
     1     1     2 1   
     2     2     3 1   
     3     2    52 1   
     4     3     4 1   
     5     3    61 1   
     6     4     5 1   
     7     4    85 1   
     8     4    86 1   
     9     5     6 1   
    10     5    84 1   
    11     6     7 1   
    12     6    87 1   
    13     7     8 1   
    14     7    88 1   
    15     8     9 1   
    16     8    83 1   
    17     9    10 1   
    18     9    89 1   
    19     9    90 1   
    20    10    11 1   
    21    10    82 1   
    22    11    12 1   
    23    11    91 1   
    24    12    13 1   
    25    12    92 1   
    26    13    14 1   
    27    13    81 1   
    28    14    15 1   
    29    14    93 1   
    30    14    94 1   
    31    15    16 1   
    32    15    80 1   
    33    16    17 1   
    34    16    95 1   
    35    17    18 1   
    36    17    96 1   
    37    18    19 1   
    38    18    79 1   
    39    19    20 1   
    40    19    97 1   
    41    19    98 1   
    42    20    21 1   
    43    20    77 1   
    44    21    22 1   
    45    21    23 1   
    46    23    24 1   
    47    23    73 1   
    48    24    25 1   
    49    24    99 1   
    50    25    26 1   
    51    25   100 1   
    52    26    27 1   
    53    26    72 1   
    54    27    28 1   
    55    27    29 1   
    56    29    30 1   
    57    29    69 1   
    58    30    31 1   
    59    30   101 1   
    60    30   102 1   
    61    31    32 1   
    62    31    68 1   
    63    32    33 1   
    64    32   103 1   
    65    33    34 1   
    66    33   104 1   
    67    34    35 1   
    68    34    67 1   
    69    35    36 1   
    70    35   105 1   
    71    35   106 1   
    72    36    37 1   
    73    36    66 1   
    74    37    38 1   
    75    37   107 1   
    76    38    39 1   
    77    38   108 1   
    78    39    40 1   
    79    39    65 1   
    80    40    41 1   
    81    40   109 1   
    82    40   110 1   
    83    41    42 1   
    84    41    64 1   
    85    42    43 1   
    86    42   111 1   
    87    43    44 1   
    88    43   112 1   
    89    44    45 1   
    90    44    63 1   
    91    45    46 1   
    92    45   113 1   
    93    45   114 1   
    94    46    47 1   
    95    46    58 1   
    96    47    48 1   
    97    47    49 1   
    98    49    50 1   
    99    49    60 1   
   100    50    51 1   
   101    50   115 1   
   102    51    52 1   
   103    51   116 1   
   104    52    53 1   
   105    53    54 1   
   106    53    60 1   
   107    54    55 1   
   108    54    61 1   
   109    55    56 1   
   110    55   117 1   
   111    56    57 1   
   112    56   118 1   
   113    57    58 1   
   114    57    60 1   
   115    58    59 1   
   116    61    62 1   
   117    63    64 1   
   118    63   119 1   
   119    64   120 1   
   120    65    66 1   
   121    65   121 1   
   122    66   122 1   
   123    67    68 1   
   124    67   123 1   
   125    68   124 1   
   126    69    70 1   
   127    69    71 1   
   128    71    72 1   
   129    71    76 1   
   130    72    73 1   
   131    73    74 1   
   132    74    75 1   
   133    74    77 1   
   134    75    76 1   
   135    75   125 1   
   136    76   126 1   
   137    77    78 1   
   138    79    80 1   
   139    79   127 1   
   140    80   128 1   
   141    81    82 1   
   142    81   129 1   
   143    82   130 1   
   144    83    84 1   
   145    83   131 1   
   146    84   132 1   
@<TRIPOS>SUBSTRUCTURE
     1 110         1 TEMP              0 ****  ****    0 ROOT
