@<TRIPOS>MOLECULE
189
  132   144     1     0     0
SMALL
bcc


@<TRIPOS>ATOM
      1 O            3.1780     4.6640    -0.3460 O           0 189      -0.346500
      2 C            3.2940     5.8650    -0.1980 C          0 189       0.375500
      3 N            4.5440     6.3870    -0.1080 N           0 189      -0.315000
      4 C1           5.6440     5.5000    -0.2110 C          0 189       0.095500
      5 C2           5.4430     4.1450    -0.3410 C          0 189      -0.077500
      6 N1           6.4650     3.3070    -0.4700 N          0 189      -0.003500
      7 C3           6.1670     1.9840    -0.8480 C          0 189      -0.027500
      8 C4           6.3470     0.6550    -0.2750 C          0 189      -0.098000
      9 C5           6.6900     0.2860     1.0160 C          0 189      -0.004000
     10 C6           7.1630     1.1840     1.9920 C          0 189      -0.150500
     11 C7           7.4510     0.7460     3.2470 C          0 189      -0.078000
     12 C8           7.2600    -0.5820     3.6320 C          0 189      -0.078000
     13 C9           6.7880    -1.4990     2.7500 C          0 189      -0.150500
     14 C10          6.5270    -1.1210     1.4170 C          0 189      -0.004000
     15 C11          6.0360    -2.0870     0.5020 C          0 189      -0.098000
     16 C12          5.5230    -3.3220     1.1250 C          0 189      -0.027500
     17 N2           5.4370    -4.6010     0.4980 N          0 189      -0.003500
     18 C13          6.5140    -5.2560     0.1080 C          0 189      -0.036000
     19 C14          6.4410    -6.5600    -0.3530 C          0 189      -0.099500
     20 C15          5.2080    -7.1900    -0.4100 C          0 189      -0.079500
     21 C16          4.0840    -6.4520    -0.0380 C          0 189       0.095500
     22 N3           2.7960    -7.0540    -0.0820 N           0 189      -0.315000
     23 C17          1.7060    -6.3050     0.1520 C          0 189       0.375500
     24 O1           1.8650    -5.1270     0.4080 O           0 189      -0.346500
     25 C18          0.3240    -6.8270     0.1150 C          0 189      -0.148000
     26 C19         -0.7680    -5.9640     0.2120 C          0 189      -0.009000
     27 C20         -2.0610    -6.4690     0.1530 C          0 189      -0.148000
     28 C21         -2.2640    -7.8490     0.0220 C          0 189      -0.049000
     29 C22         -1.1820    -8.7030    -0.0530 C          0 189      -0.124000
     30 C23          0.1030    -8.2060    -0.0090 C          0 189      -0.049000
     31 C24         -3.2500    -5.5800     0.2180 C          0 189       0.375500
     32 O2          -3.1210    -4.4000     0.4780 O           0 189      -0.346500
     33 N4          -4.4890    -6.1030    -0.0150 N           0 189      -0.315000
     34 C25         -5.6030    -5.2300    -0.0260 C          0 189       0.095500
     35 C26         -6.7920    -5.7010    -0.5950 C          0 189      -0.079500
     36 C27         -7.8880    -4.8570    -0.6180 C          0 189      -0.099500
     37 C28         -7.7910    -3.6170    -0.0250 C          0 189      -0.036000
     38 N5          -6.6730    -3.2170     0.5580 N          0 189      -0.003500
     39 C29         -6.7010    -1.9960     1.3270 C          0 189      -0.027500
     40 C30         -6.5620    -0.6780     0.6340 C          0 189      -0.098000
     41 C31         -6.5260     0.4570     1.4690 C          0 189      -0.004000
     42 C32         -6.7700     0.3040     2.8500 C          0 189      -0.150500
     43 C33         -6.7240     1.3890     3.6650 C          0 189      -0.078000
     44 C34         -6.4130     2.6490     3.1540 C          0 189      -0.078000
     45 C35         -6.1540     2.8610     1.8380 C          0 189      -0.150500
     46 C36         -6.2090     1.7850     0.9250 C          0 189      -0.004000
     47 C37         -5.9440     1.9140    -0.4300 C          0 189      -0.098000
     48 C38         -5.3320     3.0790    -1.1080 C          0 189      -0.027500
     49 N6          -5.3340     4.4050    -0.5690 N          0 189      -0.003500
     50 C39         -4.1560     5.0110    -0.4430 C          0 189      -0.077500
     51 C40         -4.0750     6.3270    -0.0460 C          0 189       0.095500
     52 N7          -2.8110     6.9570     0.0640 N           0 189      -0.315000
     53 C41         -1.6790     6.2750    -0.1520 C          0 189       0.375500
     54 O3          -1.7630     5.0880    -0.4000 O           0 189      -0.346500
     55 C42         -0.3360     6.8840    -0.1050 C          0 189      -0.148000
     56 C43         -0.2130     8.2700     0.0310 C          0 189      -0.049000
     57 C44          1.0370     8.8570     0.0800 C          0 189      -0.124000
     58 C45          2.1730     8.0840     0.0030 C          0 189      -0.049000
     59 C46          2.0660     6.6890    -0.1310 C          0 189      -0.148000
     60 C47          0.8140     6.0970    -0.1890 C          0 189      -0.009000
     61 C48         -5.2410     7.0330     0.2470 C          0 189      -0.079500
     62 C49         -6.4470     6.3600     0.1380 C          0 189      -0.099500
     63 C50         -6.4530     5.0380    -0.2740 C          0 189      -0.036000
     64 C51         -6.2500     0.8240    -1.2820 C          0 189      -0.004000
     65 C52         -6.5650    -0.5010    -0.7390 C          0 189      -0.004000
     66 C53         -6.9070    -1.5230    -1.6470 C          0 189      -0.150500
     67 C54         -6.9460    -1.2620    -2.9810 C          0 189      -0.078000
     68 C55         -6.6440    -0.0020    -3.4980 C          0 189      -0.078000
     69 C56         -6.2970     1.0260    -2.6780 C          0 189      -0.150500
     70 C57         -5.5810    -3.9620     0.5230 C          0 189      -0.077500
     71 C58          4.2330    -5.1560     0.3980 C          0 189      -0.077500
     72 C59          6.0500    -1.7780    -0.8490 C          0 189      -0.004000
     73 C60          6.2300    -0.3810    -1.2480 C          0 189      -0.004000
     74 C61          6.3550    -0.0420    -2.6080 C          0 189      -0.150500
     75 C62          6.2930    -1.0250    -3.5460 C          0 189      -0.078000
     76 C63          6.0870    -2.3530    -3.1740 C          0 189      -0.078000
     77 C64          5.9550    -2.7410    -1.8760 C          0 189      -0.150500
     78 C65          7.7130     3.7510    -0.4040 C          0 189      -0.036000
     79 C66          7.9910     5.0990    -0.2920 C          0 189      -0.099500
     80 C67          6.9440     6.0080    -0.2110 C          0 189      -0.079500
     81 H            4.6800     7.3380     0.0230 H          0 189       0.262500
     82 H1           4.4360     3.7560    -0.3370 H          0 189       0.238000
     83 H2           5.1050     2.0180    -1.0950 H          0 189       0.150000
     84 H3           6.5960     1.8970    -1.8460 H          0 189       0.150000
     85 H4           7.2990     2.2260     1.7420 H          0 189       0.130000
     86 H5           7.8390     1.4490     3.9700 H          0 189       0.165250
     87 H6           7.4920    -0.8840     4.6430 H          0 189       0.165250
     88 H7           6.6130    -2.5160     3.0680 H          0 189       0.130000
     89 H8           6.1100    -3.4690     2.0310 H          0 189       0.150000
     90 H9           4.5170    -3.0880     1.4740 H          0 189       0.150000
     91 H10          7.4740    -4.7640     0.1500 H          0 189       0.214750
     92 H11          7.3350    -7.0790    -0.6650 H          0 189       0.210000
     93 H12          5.1210    -8.2180    -0.7310 H          0 189       0.191500
     94 H13          2.7050    -7.9990    -0.2800 H          0 189       0.262500
     95 H14         -0.6080    -4.9030     0.3340 H          0 189       0.181000
     96 H15         -3.2680    -8.2450    -0.0200 H          0 189       0.152500
     97 H16         -1.3440    -9.7670    -0.1460 H          0 189       0.178000
     98 H17          0.9430    -8.8820    -0.0710 H          0 189       0.152500
     99 H18         -4.6030    -7.0530    -0.1720 H          0 189       0.262500
    100 H19         -6.8520    -6.6980    -1.0060 H          0 189       0.191500
    101 H20         -8.8070    -5.1660    -1.0940 H          0 189       0.210000
    102 H21         -8.6450    -2.9570    -0.0370 H          0 189       0.214750
    103 H22         -7.6440    -1.9770     1.8740 H          0 189       0.150000
    104 H23         -5.9040    -2.0590     2.0680 H          0 189       0.150000
    105 H24         -6.9930    -0.6710     3.2570 H          0 189       0.130000
    106 H25         -6.9290     1.2750     4.7200 H          0 189       0.165250
    107 H26         -6.3780     3.4900     3.8310 H          0 189       0.165250
    108 H27         -5.9050     3.8520     1.4890 H          0 189       0.130000
    109 H28         -4.2890     2.8200    -1.2880 H          0 189       0.150000
    110 H29         -5.7950     3.1440    -2.0920 H          0 189       0.150000
    111 H30         -3.2500     4.4620    -0.6540 H          0 189       0.238000
    112 H31         -2.7650     7.8970     0.2980 H          0 189       0.262500
    113 H32         -1.0990     8.8840     0.0990 H          0 189       0.152500
    114 H33          1.1230     9.9290     0.1800 H          0 189       0.178000
    115 H34          3.1470     8.5500     0.0440 H          0 189       0.152500
    116 H35          0.7280     5.0260    -0.2990 H          0 189       0.181000
    117 H36         -5.2050     8.0690     0.5490 H          0 189       0.191500
    118 H37         -7.3740     6.8630     0.3710 H          0 189       0.210000
    119 H38         -7.3940     4.5140    -0.3560 H          0 189       0.214750
    120 H39         -7.1390    -2.5140    -1.2830 H          0 189       0.130000
    121 H40         -7.2190    -2.0550    -3.6610 H          0 189       0.165250
    122 H41         -6.6850     0.1600    -4.5650 H          0 189       0.165250
    123 H42         -6.0600     1.9940    -3.0930 H          0 189       0.130000
    124 H43         -4.6580    -3.5740     0.9290 H          0 189       0.238000
    125 H44          3.3590    -4.5800     0.6650 H          0 189       0.238000
    126 H45          6.4980     0.9860    -2.9040 H          0 189       0.130000
    127 H46          6.4040    -0.7740    -4.5900 H          0 189       0.165250
    128 H47          6.0300    -3.1050    -3.9480 H          0 189       0.165250
    129 H48          5.7780    -3.7790    -1.6330 H          0 189       0.130000
    130 H49          8.5290     3.0440    -0.4370 H          0 189       0.214750
    131 H50          9.0140     5.4440    -0.2670 H          0 189       0.210000
    132 H51          7.1290     7.0700    -0.1520 H          0 189       0.191500
@<TRIPOS>BOND
     1     1     2 1   
     2     2     3 1   
     3     2    59 1   
     4     3     4 1   
     5     3    81 1   
     6     4     5 1   
     7     4    80 1   
     8     5     6 1   
     9     5    82 1   
    10     6     7 1   
    11     6    78 1   
    12     7     8 1   
    13     7    83 1   
    14     7    84 1   
    15     8     9 1   
    16     8    73 1   
    17     9    10 1   
    18     9    14 1   
    19    10    11 1   
    20    10    85 1   
    21    11    12 1   
    22    11    86 1   
    23    12    13 1   
    24    12    87 1   
    25    13    14 1   
    26    13    88 1   
    27    14    15 1   
    28    15    16 1   
    29    15    72 1   
    30    16    17 1   
    31    16    89 1   
    32    16    90 1   
    33    17    18 1   
    34    17    71 1   
    35    18    19 1   
    36    18    91 1   
    37    19    20 1   
    38    19    92 1   
    39    20    21 1   
    40    20    93 1   
    41    21    22 1   
    42    21    71 1   
    43    22    23 1   
    44    22    94 1   
    45    23    24 1   
    46    23    25 1   
    47    25    26 1   
    48    25    30 1   
    49    26    27 1   
    50    26    95 1   
    51    27    28 1   
    52    27    31 1   
    53    28    29 1   
    54    28    96 1   
    55    29    30 1   
    56    29    97 1   
    57    30    98 1   
    58    31    32 1   
    59    31    33 1   
    60    33    34 1   
    61    33    99 1   
    62    34    35 1   
    63    34    70 1   
    64    35    36 1   
    65    35   100 1   
    66    36    37 1   
    67    36   101 1   
    68    37    38 1   
    69    37   102 1   
    70    38    39 1   
    71    38    70 1   
    72    39    40 1   
    73    39   103 1   
    74    39   104 1   
    75    40    41 1   
    76    40    65 1   
    77    41    42 1   
    78    41    46 1   
    79    42    43 1   
    80    42   105 1   
    81    43    44 1   
    82    43   106 1   
    83    44    45 1   
    84    44   107 1   
    85    45    46 1   
    86    45   108 1   
    87    46    47 1   
    88    47    48 1   
    89    47    64 1   
    90    48    49 1   
    91    48   109 1   
    92    48   110 1   
    93    49    50 1   
    94    49    63 1   
    95    50    51 1   
    96    50   111 1   
    97    51    52 1   
    98    51    61 1   
    99    52    53 1   
   100    52   112 1   
   101    53    54 1   
   102    53    55 1   
   103    55    56 1   
   104    55    60 1   
   105    56    57 1   
   106    56   113 1   
   107    57    58 1   
   108    57   114 1   
   109    58    59 1   
   110    58   115 1   
   111    59    60 1   
   112    60   116 1   
   113    61    62 1   
   114    61   117 1   
   115    62    63 1   
   116    62   118 1   
   117    63   119 1   
   118    64    65 1   
   119    64    69 1   
   120    65    66 1   
   121    66    67 1   
   122    66   120 1   
   123    67    68 1   
   124    67   121 1   
   125    68    69 1   
   126    68   122 1   
   127    69   123 1   
   128    70   124 1   
   129    71   125 1   
   130    72    73 1   
   131    72    77 1   
   132    73    74 1   
   133    74    75 1   
   134    74   126 1   
   135    75    76 1   
   136    75   127 1   
   137    76    77 1   
   138    76   128 1   
   139    77   129 1   
   140    78    79 1   
   141    78   130 1   
   142    79    80 1   
   143    79   131 1   
   144    80   132 1   
@<TRIPOS>SUBSTRUCTURE
     1 189         1 TEMP              0 ****  ****    0 ROOT
