@<TRIPOS>MOLECULE
58
   98   104     1     0     0
SMALL
bcc


@<TRIPOS>ATOM
      1 C           -8.6320     0.9030     0.2070 C          0 58       -0.077400
      2 C1          -8.5830    -0.5870     0.5470 C          0 58       -0.077400
      3 C2          -7.4060    -1.2430    -0.1760 C          0 58       -0.091400
      4 C3          -6.1020    -0.5690     0.2580 C          0 58        0.167500
      5 H           -5.9740    -0.6860     1.3340 H          0 58        0.053700
      6 N           -4.9720    -1.1960    -0.4400 N          0 58       -0.822200
      7 C4          -5.1760    -2.6460    -0.3450 C          0 58        0.214100
      8 C5          -3.8480    -3.3450    -0.2130 C          0 58       -0.088300
      9 C6          -3.2450    -3.4490     1.0280 C          0 58       -0.118750
     10 C7          -2.0540    -4.1380     1.1610 C          0 58       -0.126750
     11 C8          -1.4610    -4.7160     0.0520 C          0 58       -0.078300
     12 C9          -0.2310    -5.5580     0.2190 C          0 58        0.007200
     13 C10          1.0390    -4.7640     0.1610 C          0 58       -0.078300
     14 C11          1.7170    -4.4520     1.3260 C          0 58       -0.126750
     15 C12          2.9320    -3.8010     1.2690 C          0 58       -0.118750
     16 C13          3.4690    -3.4510     0.0460 C          0 58       -0.088300
     17 C14          4.8410    -2.8390    -0.0350 C          0 58        0.214100
     18 N1           4.8040    -1.3980     0.2250 N          0 58       -0.822200
     19 C15          6.0570    -0.8480    -0.3160 C          0 58        0.167500
     20 H1           6.0230    -0.8830    -1.4060 H          0 58        0.053700
     21 C16          7.2410    -1.6770     0.1840 C          0 58       -0.091400
     22 C17          8.5380    -1.1090    -0.4000 C          0 58       -0.077400
     23 C18          8.7070     0.3450     0.0460 C          0 58       -0.077400
     24 C19          7.5180     1.1750    -0.4490 C          0 58       -0.091400
     25 C20          6.2250     0.6050     0.1370 C          0 58        0.167500
     26 H2           6.2730     0.6460     1.2250 H          0 58        0.053700
     27 N2           5.0810     1.4020    -0.3300 N          0 58       -0.822200
     28 C21          5.1200     2.6580     0.4290 C          0 58        0.214100
     29 C22          3.7990     3.3730     0.3370 C          0 58       -0.088300
     30 C23          3.0560     3.5900     1.4830 C          0 58       -0.118750
     31 C24          1.8700     4.2950     1.4130 C          0 58       -0.126750
     32 C25          1.4220     4.7770     0.1960 C          0 58       -0.078300
     33 C26          0.1820     5.6220     0.1310 C          0 58        0.007200
     34 C27         -1.0560     4.7960    -0.0710 C          0 58       -0.078300
     35 C28         -1.7410     4.2940     1.0190 C          0 58       -0.126750
     36 C29         -2.9180     3.5930     0.8360 C          0 58       -0.118750
     37 C30         -3.4070     3.3880    -0.4380 C          0 58       -0.088300
     38 C31         -4.7240     2.6930    -0.6540 C          0 58        0.214100
     39 N3          -4.8960     1.5750     0.2780 N          0 58       -0.822200
     40 C32         -6.1580     0.9190    -0.0950 C          0 58        0.167500
     41 H3          -6.3140     1.0250    -1.1710 H          0 58        0.053700
     42 C33         -7.3270     1.5730     0.6450 C          0 58       -0.091400
     43 C34         -2.6900     3.8380    -1.5340 C          0 58       -0.118750
     44 C35         -1.5160     4.5440    -1.3510 C          0 58       -0.126750
     45 C36          2.1350     4.5050    -0.9580 C          0 58       -0.126750
     46 C37          3.3250     3.8060    -0.8860 C          0 58       -0.118750
     47 C38          2.7560    -3.6900    -1.1170 C          0 58       -0.118750
     48 C39          1.5430    -4.3480    -1.0610 C          0 58       -0.126750
     49 C40         -2.0290    -4.5480    -1.1970 C          0 58       -0.126750
     50 C41         -3.2240    -3.8670    -1.3290 C          0 58       -0.118750
     51 H4          -8.7600     1.0250    -0.8690 H          0 58        0.041200
     52 H5          -9.4710     1.3670     0.7260 H          0 58        0.041200
     53 H6          -8.4610    -0.7090     1.6240 H          0 58        0.041200
     54 H7          -9.5130    -1.0620     0.2330 H          0 58        0.041200
     55 H8          -7.3690    -2.3030     0.0760 H          0 58        0.045325
     56 H9          -7.5320    -1.1300    -1.2530 H          0 58        0.045325
     57 H10         -5.0620    -0.9530    -1.4150 H          0 58        0.367300
     58 H11         -5.7910    -2.8690     0.5260 H          0 58        0.037200
     59 H12         -5.6820    -2.9990    -1.2440 H          0 58        0.037200
     60 H13         -3.7040    -2.9920     1.8920 H          0 58        0.135000
     61 H14         -1.5860    -4.2240     2.1300 H          0 58        0.134500
     62 H15         -0.2820    -6.0660     1.1810 H          0 58        0.057200
     63 H16         -0.2100    -6.3090    -0.5710 H          0 58        0.057200
     64 H17          1.2930    -4.7180     2.2830 H          0 58        0.134500
     65 H18          3.4630    -3.5660     2.1800 H          0 58        0.135000
     66 H19          5.4880    -3.3170     0.7000 H          0 58        0.037200
     67 H20          5.2490    -3.0100    -1.0310 H          0 58        0.037200
     68 H21          4.0550    -1.0210    -0.3370 H          0 58        0.367300
     69 H22          7.2820    -1.6320     1.2730 H          0 58        0.045325
     70 H23          7.1210    -2.7120    -0.1340 H          0 58        0.045325
     71 H24          9.3840    -1.6970    -0.0470 H          0 58        0.041200
     72 H25          8.4950    -1.1520    -1.4890 H          0 58        0.041200
     73 H26          8.7510     0.3880     1.1340 H          0 58        0.041200
     74 H27          9.6300     0.7480    -0.3710 H          0 58        0.041200
     75 H28          7.6380     2.2100    -0.1290 H          0 58        0.045325
     76 H29          7.4740     1.1330    -1.5370 H          0 58        0.045325
     77 H30          5.2660     1.6400    -1.2930 H          0 58        0.367300
     78 H31          5.3380     2.4390     1.4740 H          0 58        0.037200
     79 H32          5.9040     3.2970     0.0250 H          0 58        0.037200
     80 H33          3.4020     3.2090     2.4320 H          0 58        0.135000
     81 H34          1.2920     4.4690     2.3080 H          0 58        0.134500
     82 H35          0.0860     6.1810     1.0620 H          0 58        0.057200
     83 H36          0.2760     6.3260    -0.6950 H          0 58        0.057200
     84 H37         -1.3560     4.4490     2.0160 H          0 58        0.134500
     85 H38         -3.4540     3.2060     1.6900 H          0 58        0.135000
     86 H39         -5.5330     3.4090    -0.5070 H          0 58        0.037200
     87 H40         -4.7640     2.3150    -1.6760 H          0 58        0.037200
     88 H41         -4.1560     0.9180     0.0820 H          0 58        0.367300
     89 H42         -7.3620     2.6360     0.4040 H          0 58        0.045325
     90 H43         -7.1950     1.4460     1.7200 H          0 58        0.045325
     91 H44         -3.0500     3.6390    -2.5330 H          0 58        0.135000
     92 H45         -0.9590     4.8980    -2.2060 H          0 58        0.134500
     93 H46          1.7610     4.8370    -1.9150 H          0 58        0.134500
     94 H47          3.8840     3.5990    -1.7870 H          0 58        0.135000
     95 H48          3.1490    -3.3630    -2.0680 H          0 58        0.135000
     96 H49          0.9880    -4.5380    -1.9670 H          0 58        0.134500
     97 H50         -1.5370    -4.9480    -2.0710 H          0 58        0.134500
     98 H51         -3.6710    -3.7430    -2.3040 H          0 58        0.135000
@<TRIPOS>BOND
     1     1     2 1   
     2     1    42 1   
     3     1    51 1   
     4     1    52 1   
     5     2     3 1   
     6     2    53 1   
     7     2    54 1   
     8     3     4 1   
     9     3    55 1   
    10     3    56 1   
    11     4     5 1   
    12     4     6 1   
    13     4    40 1   
    14     6     7 1   
    15     6    57 1   
    16     7     8 1   
    17     7    58 1   
    18     7    59 1   
    19     8     9 ar  
    20     8    50 ar  
    21     9    10 ar  
    22     9    60 1   
    23    10    11 ar  
    24    10    61 1   
    25    11    12 1   
    26    11    49 ar  
    27    12    13 1   
    28    12    62 1   
    29    12    63 1   
    30    13    14 ar  
    31    13    48 ar  
    32    14    15 ar  
    33    14    64 1   
    34    15    16 ar  
    35    15    65 1   
    36    16    17 1   
    37    16    47 ar  
    38    17    18 1   
    39    17    66 1   
    40    17    67 1   
    41    18    19 1   
    42    18    68 1   
    43    19    20 1   
    44    19    21 1   
    45    19    25 1   
    46    21    22 1   
    47    21    69 1   
    48    21    70 1   
    49    22    23 1   
    50    22    71 1   
    51    22    72 1   
    52    23    24 1   
    53    23    73 1   
    54    23    74 1   
    55    24    25 1   
    56    24    75 1   
    57    24    76 1   
    58    25    26 1   
    59    25    27 1   
    60    27    28 1   
    61    27    77 1   
    62    28    29 1   
    63    28    78 1   
    64    28    79 1   
    65    29    30 ar  
    66    29    46 ar  
    67    30    31 ar  
    68    30    80 1   
    69    31    32 ar  
    70    31    81 1   
    71    32    33 1   
    72    32    45 ar  
    73    33    34 1   
    74    33    82 1   
    75    33    83 1   
    76    34    35 ar  
    77    34    44 ar  
    78    35    36 ar  
    79    35    84 1   
    80    36    37 ar  
    81    36    85 1   
    82    37    38 1   
    83    37    43 ar  
    84    38    39 1   
    85    38    86 1   
    86    38    87 1   
    87    39    40 1   
    88    39    88 1   
    89    40    41 1   
    90    40    42 1   
    91    42    89 1   
    92    42    90 1   
    93    43    44 ar  
    94    43    91 1   
    95    44    92 1   
    96    45    46 ar  
    97    45    93 1   
    98    46    94 1   
    99    47    48 ar  
   100    47    95 1   
   101    48    96 1   
   102    49    50 ar  
   103    49    97 1   
   104    50    98 1   
@<TRIPOS>SUBSTRUCTURE
     1 58          1 TEMP              0 ****  ****    0 ROOT
