@<TRIPOS>MOLECULE
15
  132   144     1     0     0
SMALL
bcc


@<TRIPOS>ATOM
      1 C1         -11.4570     1.6440    -2.1710 C          1 15       -0.097500
      2 C2         -11.1950     3.0170    -2.0580 C          1 15       -0.097500
      3 C3         -10.8440     3.5830    -0.8230 C          1 15       -0.120300
      4 C4         -10.7820     2.7450     0.2990 C          1 15       -0.097500
      5 C5         -11.0430     1.3720     0.1860 C          1 15       -0.097500
      6 C6         -11.3750     0.8020    -1.0520 C          1 15       -0.120300
      7 C7         -11.6150    -0.6900    -1.1820 C          1 15        0.043600
      8 N1         -10.3230    -1.4220    -1.1000 N          1 15        0.006900
      9 C8          -9.9670    -2.0470     0.0460 C          1 15       -0.018800
     10 C9          -8.7090    -2.6310     0.1740 C          1 15       -0.160000
     11 C10         -7.7990    -2.5940    -0.8870 C          1 15        0.134000
     12 C11         -8.2270    -2.0040    -2.0800 C          1 15       -0.160000
     13 C12         -9.4920    -1.4300    -2.1680 C          1 15       -0.018800
     14 C13         -6.4240    -3.1040    -0.7440 C          1 15       -0.124000
     15 C14         -5.6190    -2.7000     0.3320 C          1 15       -0.076000
     16 C15         -4.2850    -3.1140     0.4370 C          1 15       -0.123500
     17 C16         -3.7030    -3.9490    -0.5280 C          1 15        0.029000
     18 C17         -4.5160    -4.3790    -1.5870 C          1 15       -0.123500
     19 C18         -5.8520    -3.9650    -1.6930 C          1 15       -0.076000
     20 C19         -2.2780    -4.3170    -0.4450 C          1 15       -0.051000
     21 C20         -1.4110    -4.0930    -1.5250 C          1 15       -0.105500
     22 C21         -0.0400    -4.3630    -1.4230 C          1 15       -0.105500
     23 C22          0.5160    -4.8660    -0.2380 C          1 15       -0.051000
     24 C23         -0.3560    -5.1250     0.8300 C          1 15       -0.105500
     25 C24         -1.7290    -4.8550     0.7280 C          1 15       -0.105500
     26 C25          1.9710    -5.0650    -0.1080 C          1 15        0.029000
     27 C26          2.7030    -5.7990    -1.0520 C          1 15       -0.123500
     28 C27          4.0980    -5.9220    -0.9560 C          1 15       -0.076000
     29 C28          4.8100    -5.3140     0.0880 C          1 15       -0.124000
     30 C29          4.0730    -4.6060     1.0500 C          1 15       -0.076000
     31 C30          2.6810    -4.4840     0.9530 C          1 15       -0.123500
     32 C31          6.2820    -5.3640     0.1560 C          1 15        0.134000
     33 C32          6.9500    -5.7120     1.3340 C          1 15       -0.160000
     34 C33          8.3400    -5.6480     1.4020 C          1 15       -0.018800
     35 N2           9.0630    -5.2360     0.3360 N          1 15        0.006900
     36 C34          8.4510    -4.9600    -0.8380 C          1 15       -0.018800
     37 C35          7.0650    -5.0120    -0.9470 C          1 15       -0.160000
     38 C36         10.5340    -5.0480     0.4590 C          1 15        0.043600
     39 C37         10.8580    -3.5730     0.5950 C          1 15       -0.120300
     40 C38         10.5940    -2.8850     1.7890 C          1 15       -0.097500
     41 C39         10.8550    -1.5140     1.9020 C          1 15       -0.097500
     42 C40         11.3890    -0.7910     0.8240 C          1 15       -0.120300
     43 C41         11.6720    -1.4820    -0.3630 C          1 15       -0.097500
     44 C42         11.4100    -2.8550    -0.4760 C          1 15       -0.097500
     45 C43         11.6310     0.7020     0.9320 C          1 15        0.043600
     46 N3          10.3350     1.4320     0.8850 N          1 15        0.006900
     47 C44          9.7000     1.5870    -0.2990 C          1 15       -0.018800
     48 C45          8.4330     2.1590    -0.3570 C          1 15       -0.160000
     49 C46          7.7990     2.5940     0.8110 C          1 15        0.134000
     50 C47          8.5130     2.4830     2.0080 C          1 15       -0.160000
     51 C48          9.7810     1.9060     2.0240 C          1 15       -0.018800
     52 C49          6.4140     3.0970     0.7800 C          1 15       -0.124000
     53 C50          5.4410     2.5650     1.6400 C          1 15       -0.076000
     54 C51          4.1040     2.9790     1.5670 C          1 15       -0.123500
     55 C52          3.6880     3.9370     0.6330 C          1 15        0.029000
     56 C53          4.6650     4.4910    -0.2060 C          1 15       -0.123500
     57 C54          6.0050     4.0800    -0.1340 C          1 15       -0.076000
     58 C55          2.2660     4.3070     0.5170 C          1 15       -0.051000
     59 C56          1.6000     4.2350    -0.7160 C          1 15       -0.105500
     60 C57          0.2290     4.5050    -0.8170 C          1 15       -0.105500
     61 C58         -0.5290     4.8570     0.3100 C          1 15       -0.051000
     62 C59          0.1440     4.9650     1.5360 C          1 15       -0.105500
     63 C60          1.5170     4.6950     1.6370 C          1 15       -0.105500
     64 C61         -1.9860     5.0540     0.2120 C          1 15        0.029000
     65 C62         -2.8620     4.3480     1.0510 C          1 15       -0.123500
     66 C63         -4.2510     4.4720     0.9220 C          1 15       -0.076000
     67 C64         -4.8200     5.3070    -0.0520 C          1 15       -0.124000
     68 C65         -3.9450     6.0380    -0.8710 C          1 15       -0.076000
     69 C66         -2.5530     5.9120    -0.7410 C          1 15       -0.123500
     70 C67         -6.2810     5.3640    -0.2320 C          1 15        0.134000
     71 C68         -7.1460     5.5640     0.8480 C          1 15       -0.160000
     72 C69         -8.5260     5.5080     0.6670 C          1 15       -0.018800
     73 N4          -9.0510     5.2460    -0.5520 N          1 15        0.006900
     74 C70         -8.2430     5.1180    -1.6290 C          1 15       -0.018800
     75 C71         -6.8590     5.1680    -1.4900 C          1 15       -0.160000
     76 C72        -10.5180     5.0600    -0.7090 C          1 15        0.043600
     77 H1         -11.7400     1.2510    -3.1480 H          1 15        0.154000
     78 H2         -11.2850     3.6350    -2.9520 H          1 15        0.154000
     79 H3         -10.5400     3.1430     1.2840 H          1 15        0.154000
     80 H4         -10.9950     0.7620     1.0880 H          1 15        0.154000
     81 H5         -12.2800    -1.0470    -0.3890 H          1 15        0.114200
     82 H6         -12.0770    -0.9490    -2.1420 H          1 15        0.114200
     83 H7         -10.6810    -2.0540     0.8650 H          1 15        0.205000
     84 H8          -8.4390    -3.1110     1.1140 H          1 15        0.197500
     85 H9          -7.5630    -1.9570    -2.9420 H          1 15        0.197500
     86 H10         -9.8340    -0.9480    -3.0790 H          1 15        0.205000
     87 H11         -6.0050    -2.0280     1.0960 H          1 15        0.143500
     88 H12         -3.6870    -2.7520     1.2730 H          1 15        0.160000
     89 H13         -4.1110    -5.0470    -2.3460 H          1 15        0.160000
     90 H14         -6.4370    -4.3320    -2.5360 H          1 15        0.143500
     91 H15         -1.7910    -3.6730    -2.4540 H          1 15        0.147500
     92 H16          0.5980    -4.1420    -2.2770 H          1 15        0.147500
     93 H17          0.0250    -5.5400     1.7610 H          1 15        0.147500
     94 H18         -2.3660    -5.0700     1.5840 H          1 15        0.147500
     95 H19          2.1880    -6.2860    -1.8800 H          1 15        0.160000
     96 H20          4.6130    -6.5060    -1.7170 H          1 15        0.143500
     97 H21          4.5710    -4.1080     1.8790 H          1 15        0.143500
     98 H22          2.1520    -3.9000     1.7050 H          1 15        0.160000
     99 H23          6.3880    -6.0280     2.2130 H          1 15        0.197500
    100 H24          8.8740    -5.9010     2.3140 H          1 15        0.205000
    101 H25          9.0750    -4.6690    -1.6780 H          1 15        0.205000
    102 H26          6.5970    -4.7420    -1.8930 H          1 15        0.197500
    103 H27         10.8950    -5.6070     1.3280 H          1 15        0.114200
    104 H28         10.9950    -5.4890    -0.4330 H          1 15        0.114200
    105 H29         10.1910    -3.4070     2.6570 H          1 15        0.154000
    106 H30         10.6450    -1.0250     2.8540 H          1 15        0.154000
    107 H31         12.1140    -0.9690    -1.2180 H          1 15        0.154000
    108 H32         11.6590    -3.3540    -1.4140 H          1 15        0.154000
    109 H33         12.2480     1.0780     0.1080 H          1 15        0.114200
    110 H34         12.1450     0.9450     1.8680 H          1 15        0.114200
    111 H35         10.1990     1.2240    -1.1930 H          1 15        0.205000
    112 H36          7.9270     2.2310    -1.3190 H          1 15        0.197500
    113 H37          8.0800     2.8410     2.9420 H          1 15        0.197500
    114 H38         10.3430     1.7990     2.9470 H          1 15        0.205000
    115 H39          5.6970     1.7960     2.3650 H          1 15        0.143500
    116 H40          3.3760     2.5170     2.2330 H          1 15        0.160000
    117 H41          4.3890     5.2570    -0.9300 H          1 15        0.160000
    118 H42          6.7210     4.5460    -0.8080 H          1 15        0.143500
    119 H43          2.1380     3.9340    -1.6130 H          1 15        0.147500
    120 H44         -0.2500     4.4040    -1.7900 H          1 15        0.147500
    121 H45         -0.3960     5.2600     2.4330 H          1 15        0.147500
    122 H46          1.9950     4.7900     2.6100 H          1 15        0.147500
    123 H47         -2.4630     3.6660     1.8000 H          1 15        0.160000
    124 H48         -4.8780     3.8760     1.5810 H          1 15        0.143500
    125 H49         -4.3290     6.7210    -1.6270 H          1 15        0.143500
    126 H50         -1.9090     6.4970    -1.3970 H          1 15        0.160000
    127 H51         -6.7480     5.7570     1.8440 H          1 15        0.197500
    128 H52         -9.2120     5.6460     1.4980 H          1 15        0.205000
    129 H53         -8.7100     4.9450    -2.5960 H          1 15        0.205000
    130 H54         -6.2320     5.0180    -2.3680 H          1 15        0.197500
    131 H55        -10.8240     5.6180    -1.6020 H          1 15        0.114200
    132 H56        -11.0300     5.5050     0.1500 H          1 15        0.114200
@<TRIPOS>BOND
     1     1     2 ar  
     2     1     6 ar  
     3     1    77 1   
     4     2     3 ar  
     5     2    78 1   
     6     3     4 ar  
     7     3    76 1   
     8     4     5 ar  
     9     4    79 1   
    10     5     6 ar  
    11     5    80 1   
    12     6     7 1   
    13     7     8 1   
    14     7    81 1   
    15     7    82 1   
    16     8     9 1   
    17     8    13 1   
    18     9    10 2   
    19     9    83 1   
    20    10    11 1   
    21    10    84 1   
    22    11    12 1   
    23    11    14 2   
    24    12    13 2   
    25    12    85 1   
    26    13    86 1   
    27    14    15 ar  
    28    14    19 ar  
    29    15    16 ar  
    30    15    87 1   
    31    16    17 ar  
    32    16    88 1   
    33    17    18 ar  
    34    17    20 2   
    35    18    19 ar  
    36    18    89 1   
    37    19    90 1   
    38    20    21 1   
    39    20    25 1   
    40    21    22 ar  
    41    21    91 1   
    42    22    23 ar  
    43    22    92 1   
    44    23    24 ar  
    45    23    26 2   
    46    24    25 ar  
    47    24    93 1   
    48    25    94 1   
    49    26    27 ar  
    50    26    31 ar  
    51    27    28 ar  
    52    27    95 1   
    53    28    29 ar  
    54    28    96 1   
    55    29    30 ar  
    56    29    32 2   
    57    30    31 ar  
    58    30    97 1   
    59    31    98 1   
    60    32    33 1   
    61    32    37 1   
    62    33    34 2   
    63    33    99 1   
    64    34    35 1   
    65    34   100 1   
    66    35    36 1   
    67    35    38 1   
    68    36    37 2   
    69    36   101 1   
    70    37   102 1   
    71    38    39 1   
    72    38   103 1   
    73    38   104 1   
    74    39    40 ar  
    75    39    44 ar  
    76    40    41 ar  
    77    40   105 1   
    78    41    42 ar  
    79    41   106 1   
    80    42    43 ar  
    81    42    45 1   
    82    43    44 ar  
    83    43   107 1   
    84    44   108 1   
    85    45    46 1   
    86    45   109 1   
    87    45   110 1   
    88    46    47 1   
    89    46    51 1   
    90    47    48 2   
    91    47   111 1   
    92    48    49 1   
    93    48   112 1   
    94    49    50 1   
    95    49    52 2   
    96    50    51 2   
    97    50   113 1   
    98    51   114 1   
    99    52    53 ar  
   100    52    57 ar  
   101    53    54 ar  
   102    53   115 1   
   103    54    55 ar  
   104    54   116 1   
   105    55    56 ar  
   106    55    58 2   
   107    56    57 ar  
   108    56   117 1   
   109    57   118 1   
   110    58    59 ar  
   111    58    63 ar  
   112    59    60 ar  
   113    59   119 1   
   114    60    61 ar  
   115    60   120 1   
   116    61    62 ar  
   117    61    64 2   
   118    62    63 ar  
   119    62   121 1   
   120    63   122 1   
   121    64    65 ar  
   122    64    69 ar  
   123    65    66 ar  
   124    65   123 1   
   125    66    67 ar  
   126    66   124 1   
   127    67    68 ar  
   128    67    70 2   
   129    68    69 ar  
   130    68   125 1   
   131    69   126 1   
   132    70    71 1   
   133    70    75 1   
   134    71    72 2   
   135    71   127 1   
   136    72    73 1   
   137    72   128 1   
   138    73    74 1   
   139    73    76 1   
   140    74    75 2   
   141    74   129 1   
   142    75   130 1   
   143    76   131 1   
   144    76   132 1   
@<TRIPOS>SUBSTRUCTURE
     1 15          1 TEMP              0 ****  ****    0 ROOT
