@<TRIPOS>MOLECULE
URE
  132   137     1     0     0
SMALL
bcc


@<TRIPOS>ATOM
      1 O           -0.6880     2.5560    -5.3090 O          0 URE      -0.599600
      2 C           -1.9910     2.5970    -4.9890 C           0 URE       0.619600
      3 O1          -2.6280     3.6060    -5.1780 O           0 URE      -0.550000
      4 C1          -2.6590     1.3840    -4.3930 C          0 URE       0.071700
      5 C2          -2.3310     1.3050    -2.8960 C          0 URE      -0.045800
      6 S           -0.7950     0.3800    -2.6850 S          0 URE      -0.153600
      7 S1           0.5760     1.7700    -3.3010 S          0 URE      -0.153600
      8 C3           1.8620     0.6730    -3.9370 C          0 URE      -0.045800
      9 C4           2.8650     1.4590    -4.7880 C          0 URE       0.071700
     10 N            4.1560     1.4760    -4.1000 N           0 URE      -0.558900
     11 C5           4.9650     0.4030    -4.1270 C           0 URE       0.683200
     12 O2           4.9680    -0.3530    -5.0790 O           0 URE      -0.588100
     13 C6           5.8510     0.1680    -2.9660 C          0 URE      -0.149100
     14 C7           6.1800     1.2090    -2.1090 C          0 URE      -0.033750
     15 C8           6.9530     0.9590    -0.9850 C          0 URE      -0.154850
     16 C9           7.4100    -0.3350    -0.7230 C          0 URE      -0.033500
     17 C10          7.0150    -1.3870    -1.5440 C          0 URE      -0.154850
     18 C11          6.2990    -1.1320    -2.7050 C          0 URE      -0.033750
     19 C12          7.1230    -2.7770    -1.0650 C           0 URE       0.677950
     20 O3           7.2380    -3.6910    -1.8590 O           0 URE      -0.583350
     21 N1           7.0940    -3.0270     0.2540 N           0 URE      -0.550400
     22 C13          6.2230    -4.0620     0.8200 C          0 URE       0.073450
     23 C14          4.9500    -3.3720     1.3250 C          0 URE      -0.046800
     24 S2           3.6680    -4.5940     1.7130 S          0 URE      -0.156350
     25 S3           2.6470    -3.5850     3.1760 S          0 URE      -0.083650
     26 C15          1.1100    -4.4440     3.1370 C          0 URE      -0.064850
     27 C16         -0.0810    -3.7330     3.0700 C          0 URE      -0.006500
     28 C17         -1.2960    -4.4080     3.0430 C          0 URE      -0.064850
     29 S4          -2.8020    -3.4940     2.9680 S          0 URE      -0.083650
     30 S5          -3.8010    -4.5410     1.5220 S          0 URE      -0.156350
     31 C18         -5.1140    -3.3560     1.1250 C          0 URE      -0.046800
     32 C19         -6.3450    -4.0900     0.5860 C          0 URE       0.073450
     33 N2          -7.2150    -3.1120    -0.0730 N           0 URE      -0.550400
     34 C20         -7.0910    -2.8180    -1.3650 C           0 URE       0.677950
     35 O4          -7.2240    -3.7050    -2.1850 O           0 URE      -0.583350
     36 C21         -6.7980    -1.4540    -1.8330 C          0 URE      -0.154850
     37 C22         -6.1310    -1.2010    -3.0230 C          0 URE      -0.033750
     38 C23         -5.7610     0.0910    -3.3600 C          0 URE      -0.149100
     39 C24         -6.1570     1.1570    -2.5480 C          0 URE      -0.033750
     40 C25         -6.8570     0.9140    -1.3590 C          0 URE      -0.154850
     41 C26         -7.2120    -0.3850    -1.0220 C          0 URE      -0.033500
     42 C27         -7.0710     2.0280    -0.4130 C           0 URE       0.677950
     43 O5          -7.8610     1.8980     0.5020 O           0 URE      -0.583350
     44 N3          -6.4030     3.1760    -0.5540 N           0 URE      -0.550400
     45 C28         -6.0980     4.0160     0.6140 C          0 URE       0.073450
     46 C29         -5.2620     3.1900     1.5990 C          0 URE      -0.046800
     47 S6          -3.6360     3.9590     1.8420 S          0 URE      -0.156350
     48 S7          -2.7940     2.6300     3.1630 S          0 URE      -0.083650
     49 C30         -1.3550     3.5430     3.6350 C          0 URE      -0.064850
     50 C31         -0.3270     3.7170     2.7160 C          0 URE      -0.006500
     51 C32          0.8120     4.4160     3.0860 C          0 URE      -0.064850
     52 S8           2.1280     4.6350     1.9340 S          0 URE      -0.083650
     53 S9           3.5800     3.4740     2.7940 S          0 URE      -0.156350
     54 C33          4.4390     2.9170     1.2990 C          0 URE      -0.046800
     55 C34          5.7710     3.6700     1.1600 C          0 URE       0.073450
     56 N4           6.4560     3.1500    -0.0280 N           0 URE      -0.550400
     57 C35          7.1540     2.0230     0.0110 C           0 URE       0.677950
     58 O6           7.9800     1.8670     0.8890 O           0 URE      -0.583350
     59 C36          5.5090     5.1450     0.9940 C           0 URE       0.611850
     60 O7           5.2360     5.9030     2.0670 O          0 URE      -0.597850
     61 O8           5.5450     5.6440    -0.1060 O           0 URE      -0.548750
     62 C37          0.9250     4.9590     4.3610 C          0 URE      -0.002500
     63 C38         -0.1150     4.7960     5.2740 C          0 URE      -0.150100
     64 C39         -1.2590     4.0780     4.9100 C          0 URE      -0.002500
     65 C40         -0.0100     5.3810     6.6270 C           0 URE       0.651200
     66 O9          -1.0150     5.2240     7.5090 O          0 URE      -0.605600
     67 O10          0.9840     6.0040     6.9430 O           0 URE      -0.541000
     68 C41         -5.3150     5.2280     0.1770 C           0 URE       0.611850
     69 O11         -5.2680     6.3160     0.9630 O          0 URE      -0.597850
     70 O12         -4.7310     5.2210    -0.8800 O           0 URE      -0.548750
     71 C42         -4.8640     0.3740    -4.4920 C           0 URE       0.683200
     72 O13         -4.7960    -0.4390    -5.3930 O           0 URE      -0.588100
     73 N5          -4.1190     1.4860    -4.5830 N           0 URE      -0.558900
     74 C43         -5.9160    -5.1380    -0.4080 C           0 URE       0.611850
     75 O14         -6.1040    -6.4390    -0.1350 O          0 URE      -0.597850
     76 O15         -5.4020    -4.8080    -1.4510 O           0 URE      -0.548750
     77 C44         -1.3230    -5.7940     3.0860 C          0 URE      -0.002500
     78 C45         -0.1270    -6.5110     3.1520 C          0 URE      -0.150100
     79 C46          1.0910    -5.8320     3.1800 C          0 URE      -0.002500
     80 C47         -0.1510    -7.9880     3.1930 C           0 URE       0.651200
     81 O16          1.0030    -8.6790     3.2580 O          0 URE      -0.605600
     82 O17         -1.2120    -8.5790     3.1690 O           0 URE      -0.541000
     83 C48          5.8710    -5.0710    -0.2430 C           0 URE       0.611850
     84 O18          6.1650    -6.3680    -0.0610 O          0 URE      -0.597850
     85 O19          5.3230    -4.7120    -1.2590 O           0 URE      -0.548750
     86 C49          3.0180     0.7950    -6.1320 C           0 URE       0.619600
     87 O20          4.1280     0.9980    -6.8590 O          0 URE      -0.599600
     88 O21          2.1410     0.0790    -6.5550 O           0 URE      -0.550000
     89 H           -0.2590     3.3340    -5.6910 H          0 URE       0.451500
     90 H1          -2.2920     0.4870    -4.8920 H          0 URE       0.131700
     91 H2          -2.2100     2.3120    -2.4950 H          0 URE       0.110450
     92 H3          -3.1400     0.7960    -2.3710 H          0 URE       0.110450
     93 H4           2.3860     0.2080    -3.1010 H          0 URE       0.110450
     94 H5           1.4030    -0.1050    -4.5470 H          0 URE       0.110450
     95 H6           2.5090     2.4810    -4.9220 H          0 URE       0.131700
     96 H7           4.4320     2.2720    -3.6180 H          0 URE       0.337500
     97 H8           5.8350     2.2120    -2.3170 H          0 URE       0.164000
     98 H9           8.0680    -0.5180     0.1140 H          0 URE       0.170500
     99 H10          6.0880    -1.9310    -3.4010 H          0 URE       0.164000
    100 H11          7.6630    -2.5110     0.8460 H          0 URE       0.325750
    101 H12          6.7280    -4.5580     1.6480 H          0 URE       0.121700
    102 H13          5.1840    -2.7990     2.2220 H          0 URE       0.113825
    103 H14          4.5790    -2.6950     0.5550 H          0 URE       0.113825
    104 H15         -0.0640    -2.6540     3.0390 H          0 URE       0.164000
    105 H16         -5.3870    -2.8050     2.0250 H          0 URE       0.113825
    106 H17         -4.7520    -2.6560     0.3720 H          0 URE       0.113825
    107 H18         -6.8800    -4.5620     1.4100 H          0 URE       0.121700
    108 H19         -7.9010    -2.6670     0.4480 H          0 URE       0.325750
    109 H20         -5.8980    -2.0170    -3.6910 H          0 URE       0.164000
    110 H21         -5.9230     2.1710    -2.8380 H          0 URE       0.164000
    111 H22         -7.8050    -0.5730    -0.1390 H          0 URE       0.170500
    112 H23         -6.1170     3.4590    -1.4370 H          0 URE       0.325750
    113 H24         -7.0250     4.3310     1.0930 H          0 URE       0.121700
    114 H25         -5.7820     3.1340     2.5550 H          0 URE       0.113825
    115 H26         -5.1290     2.1830     1.2030 H          0 URE       0.113825
    116 H27         -0.4140     3.3100     1.7200 H          0 URE       0.164000
    117 H28          4.6330     1.8470     1.3690 H          0 URE       0.113825
    118 H29          3.8170     3.1170     0.4260 H          0 URE       0.113825
    119 H30          6.3850     3.5000     2.0440 H          0 URE       0.121700
    120 H31          6.3980     3.6420    -0.8610 H          0 URE       0.325750
    121 H32          5.0680     6.8490     1.9610 H          0 URE       0.457500
    122 H33          1.8140     5.5030     4.6430 H          0 URE       0.177000
    123 H34         -2.0630     3.9410     5.6190 H          0 URE       0.177000
    124 H35         -0.9460     5.6070     8.3950 H          0 URE       0.452500
    125 H36         -4.7660     7.0930     0.6820 H          0 URE       0.457500
    126 H37         -4.5340     2.3430    -4.7690 H          0 URE       0.337500
    127 H38         -5.8280    -7.1120    -0.7730 H          0 URE       0.457500
    128 H39         -2.2680    -6.3180     3.0680 H          0 URE       0.177000
    129 H40          2.0170    -6.3840     3.2360 H          0 URE       0.177000
    130 H41          0.9870    -9.6460     3.2840 H          0 URE       0.452500
    131 H42          5.9390    -7.0150    -0.7430 H          0 URE       0.457500
    132 H43          4.2250     0.5710    -7.7210 H          0 URE       0.451500
@<TRIPOS>BOND
     1     1     2 1   
     2     1    89 1   
     3     2     3 2   
     4     2     4 1   
     5     4     5 1   
     6     4    73 1   
     7     4    90 1   
     8     5     6 1   
     9     5    91 1   
    10     5    92 1   
    11     6     7 1   
    12     7     8 1   
    13     8     9 1   
    14     8    93 1   
    15     8    94 1   
    16     9    10 1   
    17     9    86 1   
    18     9    95 1   
    19    10    11 1   
    20    10    96 1   
    21    11    12 2   
    22    11    13 1   
    23    13    14 ar  
    24    13    18 ar  
    25    14    15 ar  
    26    14    97 1   
    27    15    16 ar  
    28    15    57 1   
    29    16    17 ar  
    30    16    98 1   
    31    17    18 ar  
    32    17    19 1   
    33    18    99 1   
    34    19    20 2   
    35    19    21 1   
    36    21    22 1   
    37    21   100 1   
    38    22    23 1   
    39    22    83 1   
    40    22   101 1   
    41    23    24 1   
    42    23   102 1   
    43    23   103 1   
    44    24    25 1   
    45    25    26 1   
    46    26    27 ar  
    47    26    79 ar  
    48    27    28 ar  
    49    27   104 1   
    50    28    29 1   
    51    28    77 ar  
    52    29    30 1   
    53    30    31 1   
    54    31    32 1   
    55    31   105 1   
    56    31   106 1   
    57    32    33 1   
    58    32    74 1   
    59    32   107 1   
    60    33    34 1   
    61    33   108 1   
    62    34    35 2   
    63    34    36 1   
    64    36    37 ar  
    65    36    41 ar  
    66    37    38 ar  
    67    37   109 1   
    68    38    39 ar  
    69    38    71 1   
    70    39    40 ar  
    71    39   110 1   
    72    40    41 ar  
    73    40    42 1   
    74    41   111 1   
    75    42    43 2   
    76    42    44 1   
    77    44    45 1   
    78    44   112 1   
    79    45    46 1   
    80    45    68 1   
    81    45   113 1   
    82    46    47 1   
    83    46   114 1   
    84    46   115 1   
    85    47    48 1   
    86    48    49 1   
    87    49    50 ar  
    88    49    64 ar  
    89    50    51 ar  
    90    50   116 1   
    91    51    52 1   
    92    51    62 ar  
    93    52    53 1   
    94    53    54 1   
    95    54    55 1   
    96    54   117 1   
    97    54   118 1   
    98    55    56 1   
    99    55    59 1   
   100    55   119 1   
   101    56    57 1   
   102    56   120 1   
   103    57    58 2   
   104    59    60 1   
   105    59    61 2   
   106    60   121 1   
   107    62    63 ar  
   108    62   122 1   
   109    63    64 ar  
   110    63    65 1   
   111    64   123 1   
   112    65    66 1   
   113    65    67 2   
   114    66   124 1   
   115    68    69 1   
   116    68    70 2   
   117    69   125 1   
   118    71    72 2   
   119    71    73 1   
   120    73   126 1   
   121    74    75 1   
   122    74    76 2   
   123    75   127 1   
   124    77    78 ar  
   125    77   128 1   
   126    78    79 ar  
   127    78    80 1   
   128    79   129 1   
   129    80    81 1   
   130    80    82 2   
   131    81   130 1   
   132    83    84 1   
   133    83    85 2   
   134    84   131 1   
   135    86    87 1   
   136    86    88 2   
   137    87   132 1   
@<TRIPOS>SUBSTRUCTURE
     1 URE         1 TEMP              0 ****  ****    0 ROOT
