@<TRIPOS>MOLECULE
83
   72    76     1     0     0
SMALL
bcc


@<TRIPOS>ATOM
      1 H            0.8630    -2.7660     0.4740 H          0 83        0.055825
      2 C            1.1890    -3.4950    -0.2680 C          0 83        0.375000
      3 N            2.5000    -4.0540     0.1010 N          0 83       -0.615025
      4 C1           3.7700    -3.3320     0.2000 C          0 83        0.175425
      5 C2           3.5340    -1.8280     0.0570 C          0 83       -0.101650
      6 C3           4.8290    -1.1510    -0.3940 C          0 83        0.175425
      7 N1           4.7730     0.2840    -0.1030 N          0 83       -0.615025
      8 C4           5.8560     1.1130     0.2190 C          0 83       -0.061375
      9 C5           5.4700     2.3590     0.3740 C          0 83       -0.061375
     10 N2           4.0880     2.4910     0.1710 N          0 83       -0.615025
     11 C6           3.3230     3.7380     0.2160 C          0 83        0.175425
     12 C7           1.8410     3.4530    -0.0330 C          0 83       -0.101650
     13 C8           1.1460     4.7350    -0.4950 C          0 83        0.175425
     14 N3          -0.2820     4.6740    -0.1770 N          0 83       -0.615025
     15 C9          -1.0580     5.7020     0.3750 C          0 83       -0.061375
     16 C10         -2.3240     5.3470     0.4580 C          0 83       -0.061375
     17 N4          -2.5170     4.0470    -0.0320 N          0 83       -0.615025
     18 C11         -3.7990     3.3540    -0.1730 C          0 83        0.175425
     19 C12         -3.5990     1.8450    -0.0300 C          0 83       -0.101650
     20 C13         -4.8720     1.1170    -0.4680 C          0 83        0.175425
     21 N5          -4.7770    -0.2970    -0.1020 N          0 83       -0.615025
     22 C14         -5.7860    -1.0810     0.4740 C          0 83       -0.061375
     23 C15         -5.3860    -2.3220     0.6420 C          0 83       -0.061375
     24 N6          -4.0690    -2.4940     0.1940 N          0 83       -0.615025
     25 C16         -3.3090    -3.7470     0.1870 C          0 83        0.175425
     26 C17         -1.8210    -3.4520     0.0080 C          0 83       -0.101650
     27 C18         -1.1340    -4.6580    -0.6380 C          0 83        0.175425
     28 N7           0.2850    -4.6580    -0.2800 N          0 83       -0.615025
     29 C19          1.0480    -5.7620     0.1200 C          0 83       -0.061375
     30 C20          2.3000    -5.4210     0.3360 C          0 83       -0.061375
     31 C21         -3.6050    -1.1740    -0.2620 C          0 83        0.375000
     32 H1          -3.3020    -1.2170    -1.3080 H          0 83        0.055825
     33 C22         -1.1830     3.5250    -0.3700 C          0 83        0.375000
     34 H2          -1.1560     3.1900    -1.4070 H          0 83        0.055825
     35 C23          3.5730     1.1370    -0.0900 C          0 83        0.375000
     36 H3           3.0690     1.1000    -1.0560 H          0 83        0.055825
     37 H4           1.2350    -3.0370    -1.2570 H          0 83        0.055825
     38 H5           4.2270    -3.5350     1.1690 H          0 83        0.042763
     39 H6           4.4400    -3.6690    -0.5910 H          0 83        0.042763
     40 H7           2.7540    -1.6510    -0.6840 H          0 83        0.056575
     41 H8           3.2240    -1.4150     1.0170 H          0 83        0.056575
     42 H9           5.6730    -1.5950     0.1350 H          0 83        0.042763
     43 H10          4.9590    -1.2970    -1.4670 H          0 83        0.042763
     44 H11          6.8750     0.7710     0.3260 H          0 83        0.166500
     45 H12          6.1300     3.1760     0.6240 H          0 83        0.166500
     46 H13          3.4430     4.2000     1.1960 H          0 83        0.042763
     47 H14          3.6940     4.4180    -0.5500 H          0 83        0.042763
     48 H15          1.7420     2.6880    -0.8040 H          0 83        0.056575
     49 H16          1.3790     3.1010     0.8890 H          0 83        0.056575
     50 H17          1.5930     5.5900     0.0110 H          0 83        0.042763
     51 H18          1.2720     4.8470    -1.5710 H          0 83        0.042763
     52 H19         -0.6700     6.6590     0.6900 H          0 83        0.166500
     53 H20         -3.1090     5.9750     0.8510 H          0 83        0.166500
     54 H21         -4.4850     3.7020     0.5990 H          0 83        0.042763
     55 H22         -4.2210     3.5720    -1.1540 H          0 83        0.042763
     56 H23         -2.7650     1.5290    -0.6570 H          0 83        0.056575
     57 H24         -3.3820     1.6050     1.0100 H          0 83        0.056575
     58 H25         -5.7340     1.5640     0.0270 H          0 83        0.042763
     59 H26         -4.9870     1.2050    -1.5490 H          0 83        0.042763
     60 H27         -6.7650    -0.7130     0.7440 H          0 83        0.166500
     61 H28         -5.9920    -3.1070     1.0690 H          0 83        0.166500
     62 H29         -3.4640    -4.2700     1.1300 H          0 83        0.042763
     63 H30         -3.6550    -4.3750    -0.6350 H          0 83        0.042763
     64 H31         -1.6980    -2.5780    -0.6320 H          0 83        0.056575
     65 H32         -1.3700    -3.2560     0.9810 H          0 83        0.056575
     66 H33         -1.5990    -5.5760    -0.2800 H          0 83        0.042763
     67 H34         -1.2370    -4.5970    -1.7220 H          0 83        0.042763
     68 H35          0.6590    -6.7630     0.2360 H          0 83        0.166500
     69 H36          3.0730    -6.1050     0.6530 H          0 83        0.166500
     70 H37         -2.7800    -0.8240     0.3590 H          0 83        0.055825
     71 H38         -0.9110     2.7100     0.3000 H          0 83        0.055825
     72 H39          2.8940     0.8280     0.7050 H          0 83        0.055825
@<TRIPOS>BOND
     1     1     2 1   
     2     2     3 1   
     3     2    28 1   
     4     2    37 1   
     5     3     4 1   
     6     3    30 1   
     7     4     5 1   
     8     4    38 1   
     9     4    39 1   
    10     5     6 1   
    11     5    40 1   
    12     5    41 1   
    13     6     7 1   
    14     6    42 1   
    15     6    43 1   
    16     7     8 1   
    17     7    35 1   
    18     8     9 2   
    19     8    44 1   
    20     9    10 1   
    21     9    45 1   
    22    10    11 1   
    23    10    35 1   
    24    11    12 1   
    25    11    46 1   
    26    11    47 1   
    27    12    13 1   
    28    12    48 1   
    29    12    49 1   
    30    13    14 1   
    31    13    50 1   
    32    13    51 1   
    33    14    15 1   
    34    14    33 1   
    35    15    16 2   
    36    15    52 1   
    37    16    17 1   
    38    16    53 1   
    39    17    18 1   
    40    17    33 1   
    41    18    19 1   
    42    18    54 1   
    43    18    55 1   
    44    19    20 1   
    45    19    56 1   
    46    19    57 1   
    47    20    21 1   
    48    20    58 1   
    49    20    59 1   
    50    21    22 1   
    51    21    31 1   
    52    22    23 2   
    53    22    60 1   
    54    23    24 1   
    55    23    61 1   
    56    24    25 1   
    57    24    31 1   
    58    25    26 1   
    59    25    62 1   
    60    25    63 1   
    61    26    27 1   
    62    26    64 1   
    63    26    65 1   
    64    27    28 1   
    65    27    66 1   
    66    27    67 1   
    67    28    29 1   
    68    29    30 2   
    69    29    68 1   
    70    30    69 1   
    71    31    32 1   
    72    31    70 1   
    73    33    34 1   
    74    33    71 1   
    75    35    36 1   
    76    35    72 1   
@<TRIPOS>SUBSTRUCTURE
     1 83          1 TEMP              0 ****  ****    0 ROOT
