@<TRIPOS>MOLECULE
109
  224   245     1     0     0
SMALL
bcc


@<TRIPOS>ATOM
      1 C          -12.5800    -8.7940     0.7240 C          0 109      -0.152429
      2 C1         -12.7090    -7.4200     0.6430 C          0 109      -0.109786
      3 C2         -11.5900    -6.6290     0.4640 C          0 109      -0.161500
      4 C3         -10.3350    -7.2170     0.3650 C          0 109       0.156457
      5 C4         -10.2100    -8.5980     0.4470 C          0 109      -0.161500
      6 C5         -11.3330    -9.3820     0.6250 C          0 109      -0.109786
      7 N           -9.2010    -6.4200     0.1840 N          0 109      -0.449086
      8 C6          -7.9620    -7.0470     0.1060 C          0 109       0.158386
      9 C7          -7.5510    -7.8690     1.1530 C          0 109      -0.160286
     10 C8          -6.3440    -8.5230     1.0860 C          0 109      -0.101321
     11 C9          -5.5450    -8.3940    -0.0490 C          0 109      -0.053500
     12 C10         -5.9540    -7.5730    -1.0980 C          0 109      -0.101321
     13 C11         -7.1550    -6.8980    -1.0150 C          0 109      -0.160286
     14 C12         -4.2600    -9.1290    -0.1170 C          0 109      -0.053500
     15 C13         -3.6670    -9.5910     1.0550 C          0 109      -0.101321
     16 C14         -2.4790   -10.2850     0.9990 C          0 109      -0.160286
     17 C15         -1.8820   -10.5480    -0.2300 C          0 109       0.158386
     18 C16         -2.4740   -10.0820    -1.4020 C          0 109      -0.160286
     19 C17         -3.6570    -9.3750    -1.3490 C          0 109      -0.101321
     20 N1          -0.7090   -11.2860    -0.2860 N          0 109      -0.449086
     21 C18         -0.8070   -12.6680    -0.4760 C          0 109       0.156457
     22 C19          0.0940   -13.3220    -1.3070 C          0 109      -0.161500
     23 C20         -0.0050   -14.6870    -1.4920 C          0 109      -0.109786
     24 C21         -1.0000   -15.4020    -0.8520 C          0 109      -0.152429
     25 C22         -1.8990   -14.7550    -0.0240 C          0 109      -0.109786
     26 C23         -1.8020   -13.3910     0.1700 C          0 109      -0.161500
     27 C24          0.5560   -10.7290    -0.1650 C          0 109       0.158386
     28 C25          1.2220   -10.6250     1.0410 C          0 109      -0.160286
     29 C26          2.4860   -10.0780     1.0980 C          0 109      -0.101321
     30 C27          3.0960    -9.6260    -0.0720 C          0 109      -0.053500
     31 C28          2.4220    -9.7160    -1.2880 C          0 109      -0.101321
     32 C29          1.1610   -10.2630    -1.3400 C          0 109      -0.160286
     33 C30          4.4650    -9.0570    -0.0300 C          0 109      -0.053500
     34 C31          5.1760    -9.0650     1.1670 C          0 109      -0.101321
     35 C32          6.4520    -8.5510     1.2090 C          0 109      -0.160286
     36 C33          7.0310    -8.0150     0.0600 C          0 109       0.158386
     37 C34          6.3110    -7.9880    -1.1300 C          0 109      -0.160286
     38 C35          5.0350    -8.5090    -1.1780 C          0 109      -0.101321
     39 N2           8.3350    -7.5480     0.1220 N          0 109      -0.449086
     40 C36          9.3570    -8.4920     0.2570 C          0 109       0.156457
     41 C37         10.5480    -8.3340    -0.4410 C          0 109      -0.161500
     42 C38         11.5550    -9.2690    -0.3040 C          0 109      -0.109786
     43 C39         11.3800   -10.3610     0.5260 C          0 109      -0.152429
     44 C40         10.1960   -10.5220     1.2220 C          0 109      -0.109786
     45 C41          9.1860    -9.5880     1.0940 C          0 109      -0.161500
     46 C42          8.6990    -6.2110     0.0580 C          0 109       0.158386
     47 C43          9.2370    -5.5800     1.1710 C          0 109      -0.160286
     48 C44          9.5980    -4.2550     1.1120 C          0 109      -0.101321
     49 C45          9.4450    -3.5460    -0.0790 C          0 109      -0.053500
     50 C46          8.9110    -4.1770    -1.2000 C          0 109      -0.101321
     51 C47          8.5350    -5.5020    -1.1320 C          0 109      -0.160286
     52 C48          9.8450    -2.1190    -0.1170 C          0 109      -0.053500
     53 C49         10.0790    -1.4480     1.0830 C          0 109      -0.101321
     54 C50         10.4710    -0.1300     1.0640 C          0 109      -0.160286
     55 C51         10.6560     0.5300    -0.1480 C          0 109       0.158386
     56 C52         10.4010    -0.1350    -1.3440 C          0 109      -0.160286
     57 C53          9.9970    -1.4550    -1.3290 C          0 109      -0.101321
     58 N3          11.1300     1.8350    -0.1500 N          0 109      -0.449086
     59 C54         12.5080     2.0360    -0.2750 C          0 109       0.156457
     60 C55         12.9920     3.0760    -1.0590 C          0 109      -0.161500
     61 C56         14.3540     3.2710    -1.1790 C          0 109      -0.109786
     62 C57         15.2350     2.4340    -0.5210 C          0 109      -0.152429
     63 C58         14.7570     1.3970     0.2600 C          0 109      -0.109786
     64 C59         13.3960     1.1990     0.3900 C          0 109      -0.161500
     65 C60         10.3130     2.9530    -0.0360 C          0 109       0.158386
     66 C61         10.4040     3.7970     1.0580 C          0 109      -0.160286
     67 C62          9.6060     4.9140     1.1450 C          0 109      -0.101321
     68 C63          8.7110     5.2090     0.1160 C          0 109      -0.053500
     69 C64          8.6150     4.3610    -0.9860 C          0 109      -0.101321
     70 C65          9.4100     3.2380    -1.0640 C          0 109      -0.160286
     71 C66          7.8670     6.4260     0.2030 C          0 109      -0.053500
     72 C67          7.9580     7.2390     1.3300 C          0 109      -0.101321
     73 C68          7.1800     8.3690     1.4240 C          0 109      -0.160286
     74 C69          6.2990     8.7010     0.3960 C          0 109       0.158386
     75 C70          6.2160     7.8930    -0.7330 C          0 109      -0.160286
     76 C71          6.9960     6.7600    -0.8310 C          0 109      -0.101321
     77 N4           5.5140     9.8350     0.5310 N          0 109      -0.449086
     78 C72          6.1520    11.0190     0.9130 C          0 109       0.156457
     79 C73          5.4240    12.1970     1.0270 C          0 109      -0.161500
     80 C74          6.0570    13.3640     1.4060 C          0 109      -0.109786
     81 C75          7.4150    13.3620     1.6710 C          0 109      -0.152429
     82 C76          8.1430    12.1920     1.5570 C          0 109      -0.109786
     83 C77          7.5150    11.0190     1.1850 C          0 109      -0.161500
     84 C78          4.1450     9.8870     0.3150 C          0 109       0.158386
     85 C79          3.3380    10.5510     1.2340 C          0 109      -0.160286
     86 C80          1.9780    10.6000     1.0520 C          0 109      -0.101321
     87 C81          1.4040    10.0140    -0.0760 C          0 109      -0.053500
     88 C82          2.2120     9.3780    -1.0170 C          0 109      -0.101321
     89 C83          3.5770     9.3140    -0.8180 C          0 109      -0.160286
     90 C84         -0.0690    10.0560    -0.2410 C          0 109      -0.053500
     91 C85         -0.8790    10.3090     0.8650 C          0 109      -0.101321
     92 C86         -2.2450    10.3660     0.7150 C          0 109      -0.160286
     93 C87         -2.8200    10.1960    -0.5400 C          0 109       0.158386
     94 C88         -2.0100     9.9250    -1.6420 C          0 109      -0.160286
     95 C89         -0.6400     9.8540    -1.4940 C          0 109      -0.101321
     96 N5          -4.1900    10.3330    -0.7050 N          0 109      -0.449086
     97 C90         -4.6760    11.5870    -1.0880 C          0 109       0.156457
     98 C91         -5.7120    11.6790    -2.0090 C          0 109      -0.161500
     99 C92         -6.1900    12.9190    -2.3850 C          0 109      -0.109786
    100 C93         -5.6380    14.0670    -1.8470 C          0 109      -0.152429
    101 C94         -4.6060    13.9790    -0.9310 C          0 109      -0.109786
    102 C95         -4.1270    12.7420    -0.5460 C          0 109      -0.161500
    103 C96         -5.1120     9.3150    -0.5150 C          0 109       0.158386
    104 C97         -5.8220     9.1730     0.6620 C          0 109      -0.160286
    105 C98         -6.7510     8.1660     0.8020 C          0 109      -0.101321
    106 C99         -6.9800     7.2850    -0.2550 C          0 109      -0.053500
    107 C100        -6.2520     7.4110    -1.4360 C          0 109      -0.101321
    108 C101        -5.3220     8.4180    -1.5700 C          0 109      -0.160286
    109 C102        -8.0010     6.2180    -0.1280 C          0 109      -0.053500
    110 C103        -8.7550     6.1220     1.0390 C          0 109      -0.101321
    111 C104        -9.7030     5.1320     1.1630 C          0 109      -0.160286
    112 C105        -9.9090     4.2250     0.1250 C          0 109       0.158386
    113 C106        -9.1570     4.3220    -1.0390 C          0 109      -0.160286
    114 C107        -8.2090     5.3140    -1.1690 C          0 109      -0.101321
    115 N6         -10.8800     3.2440     0.2840 N          0 109      -0.449086
    116 C108       -12.1840     3.6530     0.5770 C          0 109       0.156457
    117 C109       -12.5170     4.0460     1.8680 C          0 109      -0.161500
    118 C110       -13.8060     4.4500     2.1540 C          0 109      -0.109786
    119 C111       -14.7650     4.4640     1.1580 C          0 109      -0.152429
    120 C112       -14.4380     4.0730    -0.1270 C          0 109      -0.109786
    121 C113       -13.1490     3.6730    -0.4220 C          0 109      -0.161500
    122 C114       -10.6340     1.8810     0.1700 C          0 109       0.158386
    123 C115       -11.2890     1.0070     1.0360 C          0 109      -0.160286
    124 C116       -11.0420    -0.3420     0.9680 C          0 109      -0.101321
    125 C117       -10.1550    -0.8440     0.0100 C          0 109      -0.053500
    126 C118        -9.5440     0.0230    -0.8890 C          0 109      -0.101321
    127 C119        -9.7810     1.3800    -0.8050 C          0 109      -0.160286
    128 C120        -9.8700    -2.2970     0.0080 C          0 109      -0.053500
    129 C121        -9.2420    -2.9290    -1.0620 C          0 109      -0.101321
    130 C122        -9.0090    -4.2910    -1.0190 C          0 109      -0.160286
    131 C123        -9.3730    -5.0310     0.0840 C          0 109       0.158386
    132 C124        -9.9740    -4.4120     1.1790 C          0 109      -0.160286
    133 C125       -10.2260    -3.0360     1.1390 C          0 109      -0.101321
    134 H          -13.4560    -9.4090     0.8680 H          0 109       0.133429
    135 H1         -13.6840    -6.9630     0.7200 H          0 109       0.133500
    136 H2         -11.6910    -5.5560     0.4010 H          0 109       0.145214
    137 H3          -9.2360    -9.0580     0.3700 H          0 109       0.145214
    138 H4         -11.2360   -10.4560     0.6890 H          0 109       0.133500
    139 H5          -8.1820    -7.9910     2.0210 H          0 109       0.146607
    140 H6          -6.0150    -9.1360     1.9120 H          0 109       0.136750
    141 H7          -5.3320    -7.4650    -1.9740 H          0 109       0.136750
    142 H8          -7.4670    -6.2520    -1.8230 H          0 109       0.146607
    143 H9          -4.1380    -9.4030     2.0090 H          0 109       0.136750
    144 H10         -2.0110   -10.6270     1.9100 H          0 109       0.146607
    145 H11         -2.0050   -10.2760    -2.3550 H          0 109       0.146607
    146 H12         -4.1140    -9.0130    -2.2580 H          0 109       0.136750
    147 H13          0.8710   -12.7630    -1.8080 H          0 109       0.145214
    148 H14          0.6950   -15.1960    -2.1380 H          0 109       0.133500
    149 H15         -1.0750   -16.4700    -0.9980 H          0 109       0.133429
    150 H16         -2.6750   -15.3160     0.4740 H          0 109       0.133500
    151 H17         -2.5040   -12.8850     0.8160 H          0 109       0.145214
    152 H18          0.7490   -10.9760     1.9460 H          0 109       0.146607
    153 H19          3.0010   -10.0000     2.0440 H          0 109       0.136750
    154 H20          2.8910    -9.3560    -2.1920 H          0 109       0.136750
    155 H21          0.6400   -10.3330    -2.2830 H          0 109       0.146607
    156 H22          4.7280    -9.4730     2.0610 H          0 109       0.136750
    157 H23          7.0060    -8.5620     2.1350 H          0 109       0.146607
    158 H24          6.7530    -7.5590    -2.0170 H          0 109       0.146607
    159 H25          4.4780    -8.4920    -2.1030 H          0 109       0.136750
    160 H26         10.6860    -7.4820    -1.0890 H          0 109       0.145214
    161 H27         12.4810    -9.1470    -0.8460 H          0 109       0.133500
    162 H28         12.1700   -11.0910     0.6310 H          0 109       0.133429
    163 H29         10.0620   -11.3760     1.8690 H          0 109       0.133500
    164 H30          8.2610    -9.7140     1.6380 H          0 109       0.145214
    165 H31          9.3730    -6.1330     2.0880 H          0 109       0.146607
    166 H32          9.9990    -3.7640     1.9870 H          0 109       0.136750
    167 H33          8.7920    -3.6280    -2.1230 H          0 109       0.136750
    168 H34          8.1140    -5.9900    -1.9980 H          0 109       0.146607
    169 H35          9.9530    -1.9620     2.0250 H          0 109       0.136750
    170 H36         10.6350     0.3960     1.9930 H          0 109       0.146607
    171 H37         10.5190     0.3820    -2.2850 H          0 109       0.146607
    172 H38          9.7990    -1.9710    -2.2570 H          0 109       0.136750
    173 H39         12.3040     3.7300    -1.5740 H          0 109       0.145214
    174 H40         14.7310     4.0790    -1.7890 H          0 109       0.133500
    175 H41         16.3000     2.5890    -0.6170 H          0 109       0.133429
    176 H42         15.4480     0.7450     0.7730 H          0 109       0.133500
    177 H43         13.0230     0.3900     1.0000 H          0 109       0.145214
    178 H44         11.1070     3.5770     1.8480 H          0 109       0.146607
    179 H45          9.6710     5.5600     2.0080 H          0 109       0.136750
    180 H46          7.9180     4.5860    -1.7800 H          0 109       0.136750
    181 H47          9.3330     2.5780    -1.9160 H          0 109       0.146607
    182 H48          8.6390     6.9830     2.1290 H          0 109       0.136750
    183 H49          7.2510     9.0010     2.2970 H          0 109       0.146607
    184 H50          5.5400     8.1540    -1.5330 H          0 109       0.146607
    185 H51          6.9310     6.1330    -1.7080 H          0 109       0.136750
    186 H52          4.3640    12.1990     0.8200 H          0 109       0.145214
    187 H53          5.4920    14.2800     1.4950 H          0 109       0.133500
    188 H54          7.9070    14.2760     1.9660 H          0 109       0.133429
    189 H55          9.2020    12.1930     1.7650 H          0 109       0.133500
    190 H56          8.0840    10.1060     1.0970 H          0 109       0.145214
    191 H57          3.7840    11.0300     2.0940 H          0 109       0.146607
    192 H58          1.3530    11.0920     1.7820 H          0 109       0.136750
    193 H59          1.7720     8.9370    -1.8980 H          0 109       0.136750
    194 H60          4.2040     8.8180    -1.5440 H          0 109       0.146607
    195 H61         -0.4340    10.4590     1.8380 H          0 109       0.136750
    196 H62         -2.8730    10.5430     1.5750 H          0 109       0.146607
    197 H63         -2.4560     9.7710    -2.6130 H          0 109       0.146607
    198 H64         -0.0130     9.6440    -2.3480 H          0 109       0.136750
    199 H65         -6.1440    10.7830    -2.4290 H          0 109       0.145214
    200 H66         -6.9960    12.9920    -3.1010 H          0 109       0.133500
    201 H67         -6.0140    15.0360    -2.1430 H          0 109       0.133429
    202 H68         -4.1770    14.8770    -0.5130 H          0 109       0.133500
    203 H69         -3.3210    12.6730     0.1700 H          0 109       0.145214
    204 H70         -5.6480     9.8580     1.4790 H          0 109       0.146607
    205 H71         -7.3000     8.0600     1.7250 H          0 109       0.136750
    206 H72         -6.4170     6.7190    -2.2490 H          0 109       0.136750
    207 H73         -4.7570     8.5160    -2.4850 H          0 109       0.146607
    208 H74         -8.5970     6.8240     1.8450 H          0 109       0.136750
    209 H75        -10.2880     5.0570     2.0670 H          0 109       0.146607
    210 H76         -9.3160     3.6190    -1.8440 H          0 109       0.146607
    211 H77         -7.6270     5.3910    -2.0760 H          0 109       0.136750
    212 H78        -11.7680     4.0350     2.6460 H          0 109       0.145214
    213 H79        -14.0650     4.7550     3.1570 H          0 109       0.133500
    214 H80        -15.7730     4.7800     1.3850 H          0 109       0.133429
    215 H81        -15.1890     4.0840    -0.9030 H          0 109       0.133500
    216 H82        -12.8940     3.3680    -1.4260 H          0 109       0.145214
    217 H83        -11.9910     1.3920     1.7620 H          0 109       0.146607
    218 H84        -11.5340    -1.0160     1.6540 H          0 109       0.136750
    219 H85         -8.8850    -0.3650    -1.6520 H          0 109       0.136750
    220 H86         -9.3020     2.0550    -1.4990 H          0 109       0.146607
    221 H87         -8.9380    -2.3550    -1.9250 H          0 109       0.136750
    222 H88         -8.5370    -4.7840    -1.8560 H          0 109       0.146607
    223 H89        -10.2410    -4.9920     2.0500 H          0 109       0.146607
    224 H90        -10.6950    -2.5490     1.9810 H          0 109       0.136750
@<TRIPOS>BOND
     1     1     2 ar  
     2     1     6 ar  
     3     1   134 1   
     4     2     3 ar  
     5     2   135 1   
     6     3     4 ar  
     7     3   136 1   
     8     4     5 ar  
     9     4     7 1   
    10     5     6 ar  
    11     5   137 1   
    12     6   138 1   
    13     7     8 1   
    14     7   131 1   
    15     8     9 ar  
    16     8    13 ar  
    17     9    10 ar  
    18     9   139 1   
    19    10    11 ar  
    20    10   140 1   
    21    11    12 ar  
    22    11    14 1   
    23    12    13 ar  
    24    12   141 1   
    25    13   142 1   
    26    14    15 ar  
    27    14    19 ar  
    28    15    16 ar  
    29    15   143 1   
    30    16    17 ar  
    31    16   144 1   
    32    17    18 ar  
    33    17    20 1   
    34    18    19 ar  
    35    18   145 1   
    36    19   146 1   
    37    20    21 1   
    38    20    27 1   
    39    21    22 ar  
    40    21    26 ar  
    41    22    23 ar  
    42    22   147 1   
    43    23    24 ar  
    44    23   148 1   
    45    24    25 ar  
    46    24   149 1   
    47    25    26 ar  
    48    25   150 1   
    49    26   151 1   
    50    27    28 ar  
    51    27    32 ar  
    52    28    29 ar  
    53    28   152 1   
    54    29    30 ar  
    55    29   153 1   
    56    30    31 ar  
    57    30    33 1   
    58    31    32 ar  
    59    31   154 1   
    60    32   155 1   
    61    33    34 ar  
    62    33    38 ar  
    63    34    35 ar  
    64    34   156 1   
    65    35    36 ar  
    66    35   157 1   
    67    36    37 ar  
    68    36    39 1   
    69    37    38 ar  
    70    37   158 1   
    71    38   159 1   
    72    39    40 1   
    73    39    46 1   
    74    40    41 ar  
    75    40    45 ar  
    76    41    42 ar  
    77    41   160 1   
    78    42    43 ar  
    79    42   161 1   
    80    43    44 ar  
    81    43   162 1   
    82    44    45 ar  
    83    44   163 1   
    84    45   164 1   
    85    46    47 ar  
    86    46    51 ar  
    87    47    48 ar  
    88    47   165 1   
    89    48    49 ar  
    90    48   166 1   
    91    49    50 ar  
    92    49    52 1   
    93    50    51 ar  
    94    50   167 1   
    95    51   168 1   
    96    52    53 ar  
    97    52    57 ar  
    98    53    54 ar  
    99    53   169 1   
   100    54    55 ar  
   101    54   170 1   
   102    55    56 ar  
   103    55    58 1   
   104    56    57 ar  
   105    56   171 1   
   106    57   172 1   
   107    58    59 1   
   108    58    65 1   
   109    59    60 ar  
   110    59    64 ar  
   111    60    61 ar  
   112    60   173 1   
   113    61    62 ar  
   114    61   174 1   
   115    62    63 ar  
   116    62   175 1   
   117    63    64 ar  
   118    63   176 1   
   119    64   177 1   
   120    65    66 ar  
   121    65    70 ar  
   122    66    67 ar  
   123    66   178 1   
   124    67    68 ar  
   125    67   179 1   
   126    68    69 ar  
   127    68    71 1   
   128    69    70 ar  
   129    69   180 1   
   130    70   181 1   
   131    71    72 ar  
   132    71    76 ar  
   133    72    73 ar  
   134    72   182 1   
   135    73    74 ar  
   136    73   183 1   
   137    74    75 ar  
   138    74    77 1   
   139    75    76 ar  
   140    75   184 1   
   141    76   185 1   
   142    77    78 1   
   143    77    84 1   
   144    78    79 ar  
   145    78    83 ar  
   146    79    80 ar  
   147    79   186 1   
   148    80    81 ar  
   149    80   187 1   
   150    81    82 ar  
   151    81   188 1   
   152    82    83 ar  
   153    82   189 1   
   154    83   190 1   
   155    84    85 ar  
   156    84    89 ar  
   157    85    86 ar  
   158    85   191 1   
   159    86    87 ar  
   160    86   192 1   
   161    87    88 ar  
   162    87    90 1   
   163    88    89 ar  
   164    88   193 1   
   165    89   194 1   
   166    90    91 ar  
   167    90    95 ar  
   168    91    92 ar  
   169    91   195 1   
   170    92    93 ar  
   171    92   196 1   
   172    93    94 ar  
   173    93    96 1   
   174    94    95 ar  
   175    94   197 1   
   176    95   198 1   
   177    96    97 1   
   178    96   103 1   
   179    97    98 ar  
   180    97   102 ar  
   181    98    99 ar  
   182    98   199 1   
   183    99   100 ar  
   184    99   200 1   
   185   100   101 ar  
   186   100   201 1   
   187   101   102 ar  
   188   101   202 1   
   189   102   203 1   
   190   103   104 ar  
   191   103   108 ar  
   192   104   105 ar  
   193   104   204 1   
   194   105   106 ar  
   195   105   205 1   
   196   106   107 ar  
   197   106   109 1   
   198   107   108 ar  
   199   107   206 1   
   200   108   207 1   
   201   109   110 ar  
   202   109   114 ar  
   203   110   111 ar  
   204   110   208 1   
   205   111   112 ar  
   206   111   209 1   
   207   112   113 ar  
   208   112   115 1   
   209   113   114 ar  
   210   113   210 1   
   211   114   211 1   
   212   115   116 1   
   213   115   122 1   
   214   116   117 ar  
   215   116   121 ar  
   216   117   118 ar  
   217   117   212 1   
   218   118   119 ar  
   219   118   213 1   
   220   119   120 ar  
   221   119   214 1   
   222   120   121 ar  
   223   120   215 1   
   224   121   216 1   
   225   122   123 ar  
   226   122   127 ar  
   227   123   124 ar  
   228   123   217 1   
   229   124   125 ar  
   230   124   218 1   
   231   125   126 ar  
   232   125   128 1   
   233   126   127 ar  
   234   126   219 1   
   235   127   220 1   
   236   128   129 ar  
   237   128   133 ar  
   238   129   130 ar  
   239   129   221 1   
   240   130   131 ar  
   241   130   222 1   
   242   131   132 ar  
   243   132   133 ar  
   244   132   223 1   
   245   133   224 1   
@<TRIPOS>SUBSTRUCTURE
     1 109         1 TEMP              0 ****  ****    0 ROOT
