@<TRIPOS>MOLECULE
20
   84    94     1     0     0
SMALL
bcc


@<TRIPOS>ATOM
      1 O1          -4.1410    -3.0540    -2.9260 O           1 20       -0.555750
      2 C1          -4.2330    -2.0690    -2.2210 C           1 20        0.718850
      3 C2          -3.6540    -0.7750    -2.5840 C          1 20       -0.124350
      4 C3          -2.8830    -0.4230    -3.6810 C          1 20       -0.009500
      5 C4          -2.4220     0.8830    -3.6630 C          1 20       -0.124350
      6 C5          -1.5250     1.5780    -4.5860 C           1 20        0.718850
      7 O2          -1.0190     1.0810    -5.5760 O           1 20       -0.555750
      8 N1          -1.3380     2.8340    -4.0800 N           1 20       -0.513900
      9 C6          -0.3810     3.7740    -4.6240 C          1 20        0.149800
     10 C7           1.0240     3.4020    -4.2140 C          1 20       -0.174800
     11 C8           1.5020     3.8000    -2.9540 C          1 20       -0.055000
     12 C9           2.7860     3.4400    -2.5090 C          1 20       -0.104000
     13 C10          3.2400     3.7930    -1.2280 C          1 20       -0.055000
     14 C11          4.5060     3.3960    -0.7620 C          1 20       -0.174800
     15 C12          4.9050     3.6820     0.6710 C          1 20        0.149800
     16 N2           4.1880     2.8180     1.5930 N           1 20       -0.513900
     17 C13          2.9630     3.1240     2.1190 C           1 20        0.718850
     18 O3           2.3070     4.1430     2.0240 O           1 20       -0.555750
     19 C14          2.5110     1.9390     2.8440 C          1 20       -0.124350
     20 C15          1.3090     1.7010     3.4870 C          1 20       -0.009500
     21 C16          1.1790     0.4240     4.0040 C          1 20       -0.124350
     22 C17          0.0320    -0.2060     4.6560 C           1 20        0.718850
     23 O4          -1.0280     0.3540     4.8530 O           1 20       -0.555750
     24 N3           0.4000    -1.4930     4.9300 N           1 20       -0.513900
     25 C18         -0.5090    -2.5030     5.4320 C          1 20        0.149800
     26 C19         -1.0870    -3.3120     4.2950 C          1 20       -0.174800
     27 C20         -2.1940    -2.8120     3.5880 C          1 20       -0.055000
     28 C21         -2.7390    -3.5070     2.4950 C          1 20       -0.104000
     29 C22         -3.8100    -2.9790     1.7550 C          1 20       -0.055000
     30 C23         -4.3290    -3.6490     0.6330 C          1 20       -0.174800
     31 C24         -5.3940    -2.9840    -0.2150 C          1 20        0.149800
     32 N4          -4.8300    -1.9000    -1.0020 N           1 20       -0.513900
     33 C25         -4.7200    -0.6150    -0.5490 C           1 20        0.718850
     34 O5          -5.1280    -0.1140     0.4800 O           1 20       -0.555750
     35 C26         -3.9520     0.1180    -1.5520 C          1 20       -0.124350
     36 C27         -3.4990     1.4260    -1.5370 C          1 20       -0.009500
     37 C28         -2.7180     1.7740    -2.6260 C          1 20       -0.124350
     38 C29         -2.0020     3.0190    -2.9000 C           1 20        0.718850
     39 O6          -2.0080     3.9820    -2.1600 O           1 20       -0.555750
     40 C30         -3.7870    -4.8900     0.2960 C          1 20        0.159600
     41 O7          -4.3040    -5.5650    -0.7720 O          1 20       -0.499600
     42 C31         -2.7330    -5.4410     1.0250 C          1 20       -0.203000
     43 C32         -2.1860    -4.7490     2.1170 C          1 20        0.047000
     44 C33         -1.0880    -5.2530     2.8300 C          1 20       -0.203000
     45 C34         -0.5320    -4.5250     3.8800 C          1 20        0.159600
     46 O8           0.5860    -5.0510     4.4630 O          1 20       -0.499600
     47 C35          1.6630    -1.7740     4.4910 C           1 20        0.718850
     48 O9           2.2510    -2.8400     4.5190 O           1 20       -0.555750
     49 C36          2.1850    -0.5430     3.8980 C          1 20       -0.124350
     50 C37          3.3900    -0.3010     3.2610 C          1 20       -0.009500
     51 C38          3.5140     0.9740     2.7320 C          1 20       -0.124350
     52 C39          4.5920     1.5560     1.9320 C           1 20        0.718850
     53 O10          5.6110     0.9540     1.6600 O           1 20       -0.555750
     54 C40          5.3340     2.6810    -1.6290 C          1 20        0.159600
     55 O11          6.5780     2.3180    -1.2000 O          1 20       -0.499600
     56 C41          4.9100     2.3320    -2.9120 C          1 20       -0.203000
     57 C42          3.6280     2.6900    -3.3580 C          1 20        0.047000
     58 C43          3.1550     2.3020    -4.6200 C          1 20       -0.203000
     59 C44          1.8600     2.6280    -5.0220 C          1 20        0.159600
     60 O12          1.4540     2.1360    -6.2300 O          1 20       -0.499600
     61 H1          -2.6300    -1.1260    -4.4660 H          1 20        0.185000
     62 H2          -0.6170     4.7850    -4.2700 H          1 20        0.087700
     63 H3          -0.4750     3.7840    -5.7160 H          1 20        0.087700
     64 H4           0.8540     4.3850    -2.2990 H          1 20        0.153000
     65 H5           2.5860     4.3660    -0.5700 H          1 20        0.153000
     66 H6           5.9800     3.5450     0.8240 H          1 20        0.087700
     67 H7           4.6730     4.7290     0.9040 H          1 20        0.087700
     68 H8           0.5190     2.4420     3.5450 H          1 20        0.185000
     69 H9          -1.3180    -2.0220     5.9960 H          1 20        0.087700
     70 H10          0.0320    -3.1510     6.1310 H          1 20        0.087700
     71 H11         -2.6260    -1.8550     3.8820 H          1 20        0.153000
     72 H12         -4.2320    -2.0150     2.0420 H          1 20        0.153000
     73 H13         -5.8720    -3.6990    -0.8930 H          1 20        0.087700
     74 H14         -6.1750    -2.5840     0.4410 H          1 20        0.087700
     75 H15         -3.7050     2.1080    -0.7200 H          1 20        0.185000
     76 H16         -3.7290    -6.3170    -0.9870 H          1 20        0.434500
     77 H17         -2.3200    -6.4060     0.7420 H          1 20        0.149000
     78 H18         -0.6350    -6.2010     2.5520 H          1 20        0.149000
     79 H19          1.2630    -4.3420     4.5380 H          1 20        0.434500
     80 H20          4.1580    -1.0570     3.1480 H          1 20        0.185000
     81 H21          6.9660     1.6920    -1.8330 H          1 20        0.434500
     82 H22          5.5670     1.7690    -3.5690 H          1 20        0.149000
     83 H23          3.7780     1.7130    -5.2880 H          1 20        0.149000
     84 H24          0.5670     1.7290    -6.1200 H          1 20        0.434500
@<TRIPOS>BOND
     1     1     2 2   
     2     2     3 1   
     3     2    32 1   
     4     3     4 ar  
     5     3    35 ar  
     6     4     5 ar  
     7     4    61 1   
     8     5     6 1   
     9     5    37 ar  
    10     6     7 2   
    11     6     8 1   
    12     8     9 1   
    13     8    38 1   
    14     9    10 1   
    15     9    62 1   
    16     9    63 1   
    17    10    11 ar  
    18    10    59 ar  
    19    11    12 ar  
    20    11    64 1   
    21    12    13 ar  
    22    12    57 ar  
    23    13    14 ar  
    24    13    65 1   
    25    14    15 1   
    26    14    54 ar  
    27    15    16 1   
    28    15    66 1   
    29    15    67 1   
    30    16    17 1   
    31    16    52 1   
    32    17    18 2   
    33    17    19 1   
    34    19    20 ar  
    35    19    51 ar  
    36    20    21 ar  
    37    20    68 1   
    38    21    22 1   
    39    21    49 ar  
    40    22    23 2   
    41    22    24 1   
    42    24    25 1   
    43    24    47 1   
    44    25    26 1   
    45    25    69 1   
    46    25    70 1   
    47    26    27 ar  
    48    26    45 ar  
    49    27    28 ar  
    50    27    71 1   
    51    28    29 ar  
    52    28    43 ar  
    53    29    30 ar  
    54    29    72 1   
    55    30    31 1   
    56    30    40 ar  
    57    31    32 1   
    58    31    73 1   
    59    31    74 1   
    60    32    33 1   
    61    33    34 2   
    62    33    35 1   
    63    35    36 ar  
    64    36    37 ar  
    65    36    75 1   
    66    37    38 1   
    67    38    39 2   
    68    40    41 1   
    69    40    42 ar  
    70    41    76 1   
    71    42    43 ar  
    72    42    77 1   
    73    43    44 ar  
    74    44    45 ar  
    75    44    78 1   
    76    45    46 1   
    77    46    79 1   
    78    47    48 2   
    79    47    49 1   
    80    49    50 ar  
    81    50    51 ar  
    82    50    80 1   
    83    51    52 1   
    84    52    53 2   
    85    54    55 1   
    86    54    56 ar  
    87    55    81 1   
    88    56    57 ar  
    89    56    82 1   
    90    57    58 ar  
    91    58    59 ar  
    92    58    83 1   
    93    59    60 1   
    94    60    84 1   
@<TRIPOS>SUBSTRUCTURE
     1 20          1 TEMP              0 ****  ****    0 ROOT
