@<TRIPOS>MOLECULE
68
   54    56     1     0     0
SMALL
bcc


@<TRIPOS>ATOM
      1 H           -1.5080     1.5710    -0.4360 hn         0 68        0.326500
      2 N           -1.9480     2.4060    -0.2100 n          0 68       -0.561900
      3 C           -1.1980     3.6720    -0.0220 c3         0 68        0.089500
      4 C1           0.0920     3.6030    -0.8420 c3         0 68       -0.134400
      5 C2           1.3030     3.7040     0.0870 c3         0 68        0.089500
      6 N1           1.9990     2.3970     0.0970 n          0 68       -0.561900
      7 H1           1.5190     1.5540     0.0840 hn         0 68        0.326500
      8 C3           3.3680     2.4600     0.1240 c          0 68        0.668200
      9 O            3.9540     3.5250     0.1540 o          0 68       -0.620600
     10 C4           4.1010     1.1730     0.1170 ca         0 68       -0.148600
     11 C5           5.4940     1.1500     0.1720 ca         0 68       -0.065000
     12 C6           6.1670    -0.0570     0.1670 ca         0 68       -0.143000
     13 C7           5.4660    -1.2460     0.1080 ca         0 68       -0.065000
     14 C8           4.0720    -1.2350     0.0440 ca         0 68       -0.148600
     15 C9           3.3860    -0.0220     0.0530 ca         0 68       -0.065000
     16 C10          3.2990    -2.4950    -0.0260 c          0 68        0.668200
     17 O1           3.8510    -3.5760     0.0390 o          0 68       -0.620600
     18 N2           1.9400    -2.4010    -0.1670 n          0 68       -0.561900
     19 H2           1.4930    -1.5610    -0.3540 hn         0 68        0.326500
     20 C11          1.2030    -3.6790    -0.0120 c3         0 68        0.089500
     21 C12         -0.0740    -3.6020    -0.8510 c3         0 68       -0.134400
     22 C13         -1.3000    -3.7090     0.0580 c3         0 68        0.089500
     23 N3          -2.0010    -2.4020     0.0680 n          0 68       -0.561900
     24 H3          -1.5210    -1.5600     0.0420 hn         0 68        0.326500
     25 C14         -3.3690    -2.4590     0.1150 c          0 68        0.668200
     26 O2          -3.9560    -3.5220     0.1540 o          0 68       -0.620600
     27 C15         -4.1040    -1.1740     0.1170 ca         0 68       -0.148600
     28 C16         -5.4960    -1.1460     0.1910 ca         0 68       -0.065000
     29 C17         -6.1650     0.0610     0.1960 ca         0 68       -0.143000
     30 C18         -5.4640     1.2490     0.1260 ca         0 68       -0.065000
     31 C19         -4.0730     1.2340     0.0410 ca         0 68       -0.148600
     32 C20         -3.3880     0.0200     0.0410 ca         0 68       -0.065000
     33 C21         -3.3030     2.4960    -0.0470 c          0 68        0.668200
     34 O3          -3.8570     3.5760     0.0270 o          0 68       -0.620600
     35 H4          -1.8040     4.5100    -0.3630 h1         0 68        0.062200
     36 H5          -0.9540     3.7990     1.0330 h1         0 68        0.062200
     37 H6           0.1280     2.6570    -1.3820 hc         0 68        0.058700
     38 H7           0.1120     4.4270    -1.5550 hc         0 68        0.058700
     39 H8           1.9800     4.4770    -0.2770 h1         0 68        0.062200
     40 H9           0.9710     3.9500     1.0960 h1         0 68        0.062200
     41 H10          6.0480     2.0760     0.2170 ha         0 68        0.153000
     42 H11          7.2460    -0.0710     0.2100 ha         0 68        0.144000
     43 H12          5.9970    -2.1860     0.1100 ha         0 68        0.153000
     44 H13          2.3070    -0.0070     0.0100 ha         0 68        0.149000
     45 H14          1.8230    -4.5050    -0.3610 h1         0 68        0.062200
     46 H15          0.9450    -3.8290     1.0360 h1         0 68        0.062200
     47 H16         -0.1000    -2.6530    -1.3850 hc         0 68        0.058700
     48 H17         -0.0840    -4.4210    -1.5700 hc         0 68        0.058700
     49 H18         -1.9700    -4.4800    -0.3210 h1         0 68        0.062200
     50 H19         -0.9840    -3.9610     1.0700 h1         0 68        0.062200
     51 H20         -6.0520    -2.0710     0.2450 ha         0 68        0.153000
     52 H21         -7.2440     0.0780     0.2560 ha         0 68        0.144000
     53 H22         -5.9940     2.1890     0.1360 ha         0 68        0.153000
     54 H23         -2.3090     0.0040    -0.0160 ha         0 68        0.149000
@<TRIPOS>BOND
     1     1     2 1   
     2     2     3 1   
     3     2    33 1   
     4     3     4 1   
     5     3    35 1   
     6     3    36 1   
     7     4     5 1   
     8     4    37 1   
     9     4    38 1   
    10     5     6 1   
    11     5    39 1   
    12     5    40 1   
    13     6     7 1   
    14     6     8 1   
    15     8     9 2   
    16     8    10 1   
    17    10    11 ar  
    18    10    15 ar  
    19    11    12 ar  
    20    11    41 1   
    21    12    13 ar  
    22    12    42 1   
    23    13    14 ar  
    24    13    43 1   
    25    14    15 ar  
    26    14    16 1   
    27    15    44 1   
    28    16    17 2   
    29    16    18 1   
    30    18    19 1   
    31    18    20 1   
    32    20    21 1   
    33    20    45 1   
    34    20    46 1   
    35    21    22 1   
    36    21    47 1   
    37    21    48 1   
    38    22    23 1   
    39    22    49 1   
    40    22    50 1   
    41    23    24 1   
    42    23    25 1   
    43    25    26 2   
    44    25    27 1   
    45    27    28 ar  
    46    27    32 ar  
    47    28    29 ar  
    48    28    51 1   
    49    29    30 ar  
    50    29    52 1   
    51    30    31 ar  
    52    30    53 1   
    53    31    32 ar  
    54    31    33 1   
    55    32    54 1   
    56    33    34 2   
@<TRIPOS>SUBSTRUCTURE
     1 68          1 TEMP              0 ****  ****    0 ROOT
