@<TRIPOS>MOLECULE
DMP
   98   102     1     0     0
SMALL
bcc


@<TRIPOS>ATOM
      1 C1           3.0580    -1.0840     2.6910 c3         1 DMP      -0.067425
      2 C2           2.7780     0.3080     2.1560 ca         1 DMP      -0.059175
      3 C3           1.8330     1.1430     2.8120 ca         1 DMP      -0.059175
      4 C4           1.1150     0.6090     4.0360 c3         1 DMP      -0.067425
      5 C5           1.5860     2.4540     2.3240 ca         1 DMP      -0.109550
      6 C6           0.6640     3.3970     3.0830 c3         1 DMP       0.128550
      7 N1          -0.7300     3.0990     2.8140 n          1 DMP      -0.541650
      8 C7          -1.7200     3.6800     3.5710 c          1 DMP       0.662450
      9 O1          -1.5070     4.4540     4.4960 o          1 DMP      -0.564600
     10 C8          -3.1300     3.3510     3.2570 ca         1 DMP      -0.152350
     11 C9          -3.5090     2.3040     2.4190 ca         1 DMP       0.010000
     12 C10         -4.8680     2.0400     2.2380 ca         1 DMP      -0.152350
     13 C11         -5.8200     2.8030     2.9150 ca         1 DMP       0.020700
     14 N2          -5.4330     3.8190     3.7220 na         1 DMP       0.034900
     15 C12         -6.4510     4.6020     4.4510 c3         1 DMP      -0.036400
     16 C13         -4.1190     4.0990     3.9050 ca         1 DMP       0.020700
     17 C14         -5.3490     0.9000     1.4290 c          1 DMP       0.662450
     18 O2          -6.4340     0.4090     1.7020 o          1 DMP      -0.564600
     19 N3          -4.5210     0.4710     0.4270 n          1 DMP      -0.541650
     20 C15         -4.8030    -0.7260    -0.3440 c3         1 DMP       0.128550
     21 C16         -3.5380    -1.1600    -1.0710 ca         1 DMP      -0.109550
     22 C17         -3.4410    -1.0490    -2.4840 ca         1 DMP      -0.059175
     23 C18         -4.6010    -0.4880    -3.2810 c3         1 DMP      -0.067425
     24 C19         -2.2700    -1.4970    -3.1500 ca         1 DMP      -0.059175
     25 C20         -2.2500    -1.5810    -4.6630 c3         1 DMP      -0.067425
     26 C21         -1.1140    -1.8320    -2.3980 ca         1 DMP      -0.109550
     27 C22          0.1930    -2.1590    -3.1030 c3         1 DMP       0.128550
     28 N4           0.4370    -3.5920    -3.1310 n          1 DMP      -0.541650
     29 C23          1.5340    -4.2320    -3.6450 c          1 DMP       0.662450
     30 O3           1.4300    -5.3280    -4.1850 o          1 DMP      -0.564600
     31 C24          2.8850    -3.6490    -3.5550 ca         1 DMP      -0.152350
     32 C25          3.3070    -2.8860    -2.4700 ca         1 DMP       0.010000
     33 C26          4.6160    -2.4140    -2.4410 ca         1 DMP      -0.152350
     34 C27          5.5020    -2.7810    -3.4570 ca         1 DMP       0.020700
     35 N5           5.0850    -3.5630    -4.4830 na         1 DMP       0.034900
     36 C28          6.0520    -3.9820    -5.5170 c3         1 DMP      -0.036400
     37 C29          3.8040    -4.0010    -4.5460 ca         1 DMP       0.020700
     38 C30          5.1440    -1.5740    -1.3440 c          1 DMP       0.662450
     39 O4           6.3550    -1.5470    -1.1730 o          1 DMP      -0.564600
     40 N6           4.2380    -0.8500    -0.6090 n          1 DMP      -0.541650
     41 C31          4.6770    -0.0130     0.4900 c3         1 DMP       0.128550
     42 C32          3.5250     0.8040     1.0530 ca         1 DMP      -0.109550
     43 C33          3.1910     2.0650     0.4920 ca         1 DMP      -0.059175
     44 C34          3.8880     2.5770    -0.7520 c3         1 DMP      -0.067425
     45 C35          2.2150     2.8850     1.1230 ca         1 DMP      -0.059175
     46 C36          1.9020     4.2650     0.5740 c3         1 DMP      -0.067425
     47 C37         -1.1880    -1.8820    -0.9780 ca         1 DMP      -0.059175
     48 C38          0.0410    -2.2450    -0.1710 c3         1 DMP      -0.067425
     49 C39         -2.4230    -1.6340    -0.3250 ca         1 DMP      -0.059175
     50 C40         -2.5210    -1.8340     1.1750 c3         1 DMP      -0.067425
     51 H1           3.8960    -1.0510     3.3940 hc         1 DMP       0.054242
     52 H2           2.1920    -1.5200     3.1950 hc         1 DMP       0.054242
     53 H3           3.2880    -1.7840     1.8820 hc         1 DMP       0.054242
     54 H4           1.8400     0.2380     4.7680 hc         1 DMP       0.054242
     55 H5           0.4390    -0.2010     3.7420 hc         1 DMP       0.054242
     56 H6           0.5070     1.3460     4.5600 hc         1 DMP       0.054242
     57 H7           0.8580     3.3520     4.1610 h1         1 DMP       0.079575
     58 H8           0.8350     4.4470     2.8280 h1         1 DMP       0.079575
     59 H9          -0.9180     2.6360     1.9380 hn         1 DMP       0.325000
     60 H10         -2.7650     1.6560     1.9650 ha         1 DMP       0.185000
     61 H11         -6.8870     2.6050     2.8330 h4         1 DMP       0.237500
     62 H12         -6.0950     5.6290     4.5640 h1         1 DMP       0.109700
     63 H13         -6.5910     4.1260     5.4250 h1         1 DMP       0.109700
     64 H14         -7.3820     4.6010     3.8780 h1         1 DMP       0.109700
     65 H15         -3.8780     4.9110     4.5890 h4         1 DMP       0.237500
     66 H16         -3.7680     1.0490     0.0790 hn         1 DMP       0.325000
     67 H17         -5.6400    -0.4990    -1.0070 h1         1 DMP       0.079575
     68 H18         -5.1740    -1.5220     0.3110 h1         1 DMP       0.079575
     69 H19         -4.3000    -0.1340    -4.2710 hc         1 DMP       0.054242
     70 H20         -5.3810    -1.2470    -3.3990 hc         1 DMP       0.054242
     71 H21         -5.0160     0.4000    -2.7950 hc         1 DMP       0.054242
     72 H22         -1.8890    -0.6410    -5.0890 hc         1 DMP       0.054242
     73 H23         -3.2400    -1.8100    -5.0690 hc         1 DMP       0.054242
     74 H24         -1.6220    -2.4070    -5.0120 hc         1 DMP       0.054242
     75 H25          1.0170    -1.6260    -2.6270 h1         1 DMP       0.079575
     76 H26          0.2180    -1.7990    -4.1360 h1         1 DMP       0.079575
     77 H27         -0.4030    -4.1470    -3.2790 hn         1 DMP       0.325000
     78 H28          2.6400    -2.7210    -1.6300 ha         1 DMP       0.185000
     79 H29          6.5450    -2.4700    -3.4580 h4         1 DMP       0.237500
     80 H30          6.7940    -3.1910    -5.6510 h1         1 DMP       0.109700
     81 H31          5.5200    -4.1430    -6.4580 h1         1 DMP       0.109700
     82 H32          6.5210    -4.9050    -5.1690 h1         1 DMP       0.109700
     83 H33          3.5370    -4.6460    -5.3800 h4         1 DMP       0.237500
     84 H34          3.2600    -0.7930    -0.8500 hn         1 DMP       0.325000
     85 H35          5.5030     0.6280     0.1620 h1         1 DMP       0.079575
     86 H36          5.1310    -0.6570     1.2510 h1         1 DMP       0.079575
     87 H37          4.5620     1.8560    -1.2170 hc         1 DMP       0.054242
     88 H38          4.4760     3.4690    -0.5130 hc         1 DMP       0.054242
     89 H39          3.1500     2.8130    -1.5260 hc         1 DMP       0.054242
     90 H40          0.8230     4.4530     0.5960 hc         1 DMP       0.054242
     91 H41          2.4220     5.0260     1.1640 hc         1 DMP       0.054242
     92 H42          2.1900     4.3950    -0.4710 hc         1 DMP       0.054242
     93 H43          0.2590    -3.3130    -0.2710 hc         1 DMP       0.054242
     94 H44          0.9020    -1.6560    -0.4970 hc         1 DMP       0.054242
     95 H45         -0.0550    -2.0150     0.8930 hc         1 DMP       0.054242
     96 H46         -2.0170    -2.7590     1.4750 hc         1 DMP       0.054242
     97 H47         -3.5450    -1.9510     1.5320 hc         1 DMP       0.054242
     98 H48         -2.0690    -0.9840     1.6960 hc         1 DMP       0.054242
@<TRIPOS>BOND
     1     1     2 1   
     2     1    51 1   
     3     1    52 1   
     4     1    53 1   
     5     2     3 ar  
     6     2    42 ar  
     7     3     4 1   
     8     3     5 ar  
     9     4    54 1   
    10     4    55 1   
    11     4    56 1   
    12     5     6 1   
    13     5    45 ar  
    14     6     7 1   
    15     6    57 1   
    16     6    58 1   
    17     7     8 1   
    18     7    59 1   
    19     8     9 2   
    20     8    10 1   
    21    10    11 ar  
    22    10    16 ar  
    23    11    12 ar  
    24    11    60 1   
    25    12    13 ar  
    26    12    17 1   
    27    13    14 2   
    28    13    61 1   
    29    14    15 1   
    30    14    16 1   
    31    15    62 1   
    32    15    63 1   
    33    15    64 1   
    34    16    65 1   
    35    17    18 2   
    36    17    19 1   
    37    19    20 1   
    38    19    66 1   
    39    20    21 1   
    40    20    67 1   
    41    20    68 1   
    42    21    22 ar  
    43    21    49 ar  
    44    22    23 1   
    45    22    24 ar  
    46    23    69 1   
    47    23    70 1   
    48    23    71 1   
    49    24    25 1   
    50    24    26 ar  
    51    25    72 1   
    52    25    73 1   
    53    25    74 1   
    54    26    27 1   
    55    26    47 ar  
    56    27    28 1   
    57    27    75 1   
    58    27    76 1   
    59    28    29 1   
    60    28    77 1   
    61    29    30 2   
    62    29    31 1   
    63    31    32 ar  
    64    31    37 ar  
    65    32    33 ar  
    66    32    78 1   
    67    33    34 ar  
    68    33    38 1   
    69    34    35 2   
    70    34    79 1   
    71    35    36 1   
    72    35    37 1   
    73    36    80 1   
    74    36    81 1   
    75    36    82 1   
    76    37    83 1   
    77    38    39 2   
    78    38    40 1   
    79    40    41 1   
    80    40    84 1   
    81    41    42 1   
    82    41    85 1   
    83    41    86 1   
    84    42    43 ar  
    85    43    44 1   
    86    43    45 ar  
    87    44    87 1   
    88    44    88 1   
    89    44    89 1   
    90    45    46 1   
    91    46    90 1   
    92    46    91 1   
    93    46    92 1   
    94    47    48 1   
    95    47    49 ar  
    96    48    93 1   
    97    48    94 1   
    98    48    95 1   
    99    49    50 1   
   100    50    96 1   
   101    50    97 1   
   102    50    98 1   
@<TRIPOS>SUBSTRUCTURE
     1 DMP         1 TEMP              0 ****  ****    0 ROOT
