@<TRIPOS>MOLECULE
8
  148   166     1     0     0
SMALL
bcc


@<TRIPOS>ATOM
      1 C1          -5.1890    -4.4880     3.7760 ca         1 8        -0.131500
      2 C2          -6.0880    -3.4890     3.4670 ca         1 8        -0.009500
      3 C3          -6.0860    -2.9430     2.1850 ca         1 8        -0.196000
      4 C4          -5.1960    -3.3910     1.1680 ca         1 8         0.126000
      5 C5          -4.3030    -4.4550     1.4640 ca         1 8        -0.120500
      6 C6          -4.3130    -4.9530     2.7960 ca         1 8        -0.058500
      7 C7          -3.4110    -4.9530     0.4700 c2         1 8         0.203000
      8 C8          -2.5370    -6.0590     0.7390 ca         1 8        -0.133000
      9 C9          -3.0820    -7.3020     1.0750 ca         1 8        -0.086000
     10 C10         -2.2670    -8.3940     1.3300 ca         1 8        -0.108000
     11 C11         -0.8770    -8.2670     1.2620 ca         1 8        -0.073000
     12 C12         -0.2180    -7.0610     0.9380 cp         1 8        -0.045000
     13 C13         -1.1110    -5.9800     0.6700 ca         1 8        -0.097000
     14 C14          1.2460    -6.9560     0.9030 cq         1 8        -0.045000
     15 C15          2.0830    -8.0550     1.1980 ca         1 8        -0.073000
     16 C16          3.4790    -7.9840     1.1990 ca         1 8        -0.108000
     17 C17          4.1190    -6.7900     0.9030 ca         1 8        -0.086000
     18 C18          3.3880    -5.6390     0.5910 ca         1 8        -0.133000
     19 C19          1.9630    -5.7630     0.5910 ca         1 8        -0.097000
     20 C20          4.0830    -4.4240     0.2760 c2         1 8         0.203000
     21 C21          4.9440    -3.7960     1.2240 ca         1 8        -0.120500
     22 C22          5.0900    -4.2750     2.5540 ca         1 8        -0.058500
     23 C23          5.9390    -3.6830     3.4880 ca         1 8        -0.131500
     24 C24          6.6730    -2.5710     3.1320 ca         1 8        -0.009500
     25 C25          6.5300    -2.0430     1.8510 ca         1 8        -0.196000
     26 C26          5.6620    -2.6200     0.8800 ca         1 8         0.126000
     27 N1           5.4860    -2.0360    -0.3590 na         1 8        -0.080000
     28 C27          6.0510    -0.8190    -0.6200 ca         1 8        -0.016000
     29 C28          7.3500    -0.7170    -1.1430 ca         1 8        -0.074000
     30 C29          7.9080     0.5360    -1.4180 ca         1 8        -0.102000
     31 C30          7.1780     1.7060    -1.1790 ca         1 8        -0.074000
     32 C31          5.8770     1.6410    -0.6570 ca         1 8        -0.016000
     33 C32          5.3260     0.3700    -0.3800 ca         1 8        -0.101000
     34 N2           5.1460     2.7730    -0.4320 na         1 8        -0.080000
     35 C33          4.2750     3.2290    -1.4030 ca         1 8         0.126000
     36 C34          4.2390     2.6340    -2.6970 ca         1 8        -0.196000
     37 C35          3.3890     3.0840    -3.7050 ca         1 8        -0.009500
     38 C36          2.5540     4.1540    -3.4540 ca         1 8        -0.131500
     39 C37          2.5680     4.7580    -2.1980 ca         1 8        -0.058500
     40 C38          3.4000     4.3140    -1.1340 ca         1 8        -0.120500
     41 C39          3.4200     4.9580     0.1340 c2         1 8         0.203000
     42 C40          2.5610     6.0730     0.4140 ca         1 8        -0.133000
     43 C41          3.1210     7.3250     0.6830 ca         1 8        -0.086000
     44 C42          2.3190     8.4250     0.9450 ca         1 8        -0.108000
     45 C43          0.9280     8.2980     0.9520 ca         1 8        -0.073000
     46 C44          0.2540     7.0820     0.6990 cp         1 8        -0.045000
     47 C45          1.1330     5.9930     0.4190 ca         1 8        -0.097000
     48 C46         -1.2100     6.9790     0.7420 cp         1 8        -0.045000
     49 C47         -2.0320     8.0870     1.0420 ca         1 8        -0.073000
     50 C48         -3.4260     8.0180     1.1170 ca         1 8        -0.108000
     51 C49         -4.0790     6.8150     0.8940 ca         1 8        -0.086000
     52 C50         -3.3650     5.6550     0.5830 ca         1 8        -0.133000
     53 C51         -1.9420     5.7760     0.5060 ca         1 8        -0.097000
     54 C52         -4.0740     4.4300     0.3450 c2         1 8         0.203000
     55 C53         -4.8840     3.8350     1.3560 ca         1 8        -0.120500
     56 C54         -4.9600     4.3570     2.6770 ca         1 8        -0.058500
     57 C55         -5.7590     3.7970     3.6720 ca         1 8        -0.131500
     58 C56         -6.5090     2.6740     3.3920 ca         1 8        -0.009500
     59 C57         -6.4330     2.1040     2.1230 ca         1 8        -0.196000
     60 C58         -5.6170     2.6480     1.0900 ca         1 8         0.126000
     61 N3          -5.5060     2.0240    -0.1370 na         1 8        -0.080000
     62 C59         -6.0830     0.8000    -0.3280 ca         1 8        -0.016000
     63 C60         -7.4070     0.6810    -0.7780 ca         1 8        -0.074000
     64 C61         -7.9780    -0.5790    -0.9830 ca         1 8        -0.102000
     65 C62         -7.2360    -1.7410    -0.7460 ca         1 8        -0.074000
     66 C63         -5.9100    -1.6610    -0.2960 ca         1 8        -0.016000
     67 C64         -5.3450    -0.3810    -0.0890 ca         1 8        -0.101000
     68 N4          -5.1670    -2.7860    -0.0730 na         1 8        -0.080000
     69 C65         -4.3450    -3.2710    -1.0730 ca         1 8         0.126000
     70 C66         -4.3770    -2.7160    -2.3850 ca         1 8        -0.196000
     71 C67         -3.5780    -3.1980    -3.4200 ca         1 8        -0.009500
     72 C68         -2.7310    -4.2590    -3.1800 ca         1 8        -0.131500
     73 C69         -2.6800    -4.8250    -1.9070 ca         1 8        -0.058500
     74 C70         -3.4570    -4.3490    -0.8160 ca         1 8        -0.120500
     75 C71         -4.7650     2.5960    -1.1530 ca         1 8         0.126000
     76 C72         -4.7200     2.0100    -2.4500 ca         1 8        -0.196000
     77 C73         -4.0010     2.5750    -3.5020 ca         1 8        -0.009500
     78 C74         -3.3120     3.7520    -3.2920 ca         1 8        -0.131500
     79 C75         -3.3390     4.3500    -2.0330 ca         1 8        -0.058500
     80 C76         -4.0370     3.7940    -0.9260 ca         1 8        -0.120500
     81 C77          4.3620     4.4900     1.0960 ca         1 8        -0.120500
     82 C78          4.4400     5.0280     2.4100 ca         1 8        -0.058500
     83 C79          5.3650     4.5920     3.3570 ca         1 8        -0.131500
     84 C80          6.2480     3.5840     3.0330 ca         1 8        -0.009500
     85 C81          6.1800     2.9990     1.7710 ca         1 8        -0.196000
     86 C82          5.2390     3.4160     0.7870 ca         1 8         0.126000
     87 C83          4.6930    -2.6410    -1.3150 ca         1 8         0.126000
     88 C84          4.5810    -2.0980    -2.6270 ca         1 8        -0.196000
     89 C85          3.8080    -2.6960    -3.6210 ca         1 8        -0.009500
     90 C86          3.1320    -3.8650    -3.3370 ca         1 8        -0.131500
     91 C87          3.2250    -4.4210    -2.0620 ca         1 8        -0.058500
     92 C88          3.9800    -3.8300    -1.0120 ca         1 8        -0.120500
     93 H1          -5.1690    -4.9210     4.7760 ha         1 8         0.182000
     94 H2          -6.7890    -3.1380     4.2240 ha         1 8         0.177000
     95 H3          -6.8220    -2.1620     2.0140 ha         1 8         0.161500
     96 H4          -3.6200    -5.7340     3.1140 ha         1 8         0.175000
     97 H5          -4.1610    -7.4520     1.1220 ha         1 8         0.161000
     98 H6          -2.7070    -9.3580     1.5820 ha         1 8         0.178000
     99 H7          -0.3230    -9.1770     1.4810 ha         1 8         0.167000
    100 H8          -0.6920    -5.0080     0.4220 ha         1 8         0.135000
    101 H9           1.6750    -9.0320     1.4470 ha         1 8         0.167000
    102 H10          4.0620    -8.8740     1.4320 ha         1 8         0.178000
    103 H11          5.2090    -6.7860     0.8980 ha         1 8         0.161000
    104 H12          1.4000    -4.8620     0.3600 ha         1 8         0.135000
    105 H13          4.5290    -5.1430     2.9090 ha         1 8         0.175000
    106 H14          6.0300    -4.1060     4.4890 ha         1 8         0.182000
    107 H15          7.3540    -2.1190     3.8520 ha         1 8         0.177000
    108 H16          7.1400    -1.1690     1.6400 ha         1 8         0.161500
    109 H17          7.9420    -1.6120    -1.3420 ha         1 8         0.185000
    110 H18          8.9210     0.6020    -1.8240 ha         1 8         0.194000
    111 H19          7.6390     2.6690    -1.4080 ha         1 8         0.185000
    112 H20          4.3180     0.3050     0.0300 ha         1 8         0.161000
    113 H21          4.9050     1.8230    -2.9810 ha         1 8         0.161500
    114 H22          3.4050     2.6290    -4.6940 ha         1 8         0.177000
    115 H23          1.9130     4.5490    -4.2420 ha         1 8         0.182000
    116 H24          1.9260     5.6340    -2.0840 ha         1 8         0.175000
    117 H25          4.2010     7.4750     0.6710 ha         1 8         0.161000
    118 H26          2.7720     9.3960     1.1450 ha         1 8         0.178000
    119 H27          0.3850     9.2150     1.1710 ha         1 8         0.167000
    120 H28          0.7020     5.0140     0.2230 ha         1 8         0.135000
    121 H29         -1.6120     9.0720     1.2380 ha         1 8         0.167000
    122 H30         -3.9970     8.9150     1.3500 ha         1 8         0.178000
    123 H31         -5.1680     6.8130     0.9450 ha         1 8         0.161000
    124 H32         -1.3900     4.8680     0.2770 ha         1 8         0.135000
    125 H33         -4.3830     5.2360     2.9720 ha         1 8         0.175000
    126 H34         -5.7970     4.2520     4.6620 ha         1 8         0.182000
    127 H35         -7.1510     2.2460     4.1610 ha         1 8         0.177000
    128 H36         -7.0520     1.2230     1.9740 ha         1 8         0.161500
    129 H37         -8.0100     1.5700    -0.9740 ha         1 8         0.185000
    130 H38         -9.0110    -0.6570    -1.3320 ha         1 8         0.194000
    131 H39         -7.7070    -2.7110    -0.9190 ha         1 8         0.185000
    132 H40         -4.3170    -0.3040     0.2650 ha         1 8         0.161000
    133 H41         -5.0570    -1.9140    -2.6590 ha         1 8         0.161500
    134 H42         -3.6460    -2.7730    -4.4210 ha         1 8         0.177000
    135 H43         -2.1300    -4.6790    -3.9880 ha         1 8         0.182000
    136 H44         -2.0320    -5.6970    -1.8000 ha         1 8         0.175000
    137 H45         -5.2810     1.1130    -2.7020 ha         1 8         0.161500
    138 H46         -4.0100     2.1220    -4.4920 ha         1 8         0.177000
    139 H47         -2.7800     4.2320    -4.1130 ha         1 8         0.182000
    140 H48         -2.8210     5.3070    -1.9500 ha         1 8         0.175000
    141 H49          3.7630     5.8190     2.7390 ha         1 8         0.175000
    142 H50          5.3960     5.0560     4.3440 ha         1 8         0.182000
    143 H51          6.9870     3.2550     3.7640 ha         1 8         0.177000
    144 H52          6.9070     2.2130     1.5860 ha         1 8         0.161500
    145 H53          5.1260    -1.2100    -2.9370 ha         1 8         0.161500
    146 H54          3.7650    -2.2750    -4.6250 ha         1 8         0.177000
    147 H55          2.5580    -4.3720    -4.1120 ha         1 8         0.182000
    148 H56          2.7130    -5.3750    -1.9210 ha         1 8         0.175000
@<TRIPOS>BOND
     1     1     2 1   
     2     1     6 1   
     3     1    93 1   
     4     2     3 1   
     5     2    94 1   
     6     3     4 1   
     7     3    95 1   
     8     4     5 1   
     9     4    68 1   
    10     5     6 1   
    11     5     7 1   
    12     6    96 1   
    13     7     8 1   
    14     7    74 1   
    15     8     9 1   
    16     8    13 1   
    17     9    10 1   
    18     9    97 1   
    19    10    11 1   
    20    10    98 1   
    21    11    12 1   
    22    11    99 1   
    23    12    13 1   
    24    12    14 1   
    25    13   100 1   
    26    14    15 1   
    27    14    19 1   
    28    15    16 1   
    29    15   101 1   
    30    16    17 1   
    31    16   102 1   
    32    17    18 1   
    33    17   103 1   
    34    18    19 1   
    35    18    20 1   
    36    19   104 1   
    37    20    21 1   
    38    20    92 1   
    39    21    22 1   
    40    21    26 1   
    41    22    23 1   
    42    22   105 1   
    43    23    24 1   
    44    23   106 1   
    45    24    25 1   
    46    24   107 1   
    47    25    26 1   
    48    25   108 1   
    49    26    27 1   
    50    27    28 1   
    51    27    87 1   
    52    28    29 1   
    53    28    33 1   
    54    29    30 1   
    55    29   109 1   
    56    30    31 1   
    57    30   110 1   
    58    31    32 1   
    59    31   111 1   
    60    32    33 1   
    61    32    34 1   
    62    33   112 1   
    63    34    35 1   
    64    34    86 1   
    65    35    36 1   
    66    35    40 1   
    67    36    37 1   
    68    36   113 1   
    69    37    38 1   
    70    37   114 1   
    71    38    39 1   
    72    38   115 1   
    73    39    40 1   
    74    39   116 1   
    75    40    41 1   
    76    41    42 1   
    77    41    81 1   
    78    42    43 1   
    79    42    47 1   
    80    43    44 1   
    81    43   117 1   
    82    44    45 1   
    83    44   118 1   
    84    45    46 1   
    85    45   119 1   
    86    46    47 1   
    87    46    48 1   
    88    47   120 1   
    89    48    49 1   
    90    48    53 1   
    91    49    50 1   
    92    49   121 1   
    93    50    51 1   
    94    50   122 1   
    95    51    52 1   
    96    51   123 1   
    97    52    53 1   
    98    52    54 1   
    99    53   124 1   
   100    54    55 1   
   101    54    80 1   
   102    55    56 1   
   103    55    60 1   
   104    56    57 1   
   105    56   125 1   
   106    57    58 1   
   107    57   126 1   
   108    58    59 1   
   109    58   127 1   
   110    59    60 1   
   111    59   128 1   
   112    60    61 1   
   113    61    62 1   
   114    61    75 1   
   115    62    63 1   
   116    62    67 1   
   117    63    64 1   
   118    63   129 1   
   119    64    65 1   
   120    64   130 1   
   121    65    66 1   
   122    65   131 1   
   123    66    67 1   
   124    66    68 1   
   125    67   132 1   
   126    68    69 1   
   127    69    70 1   
   128    69    74 1   
   129    70    71 1   
   130    70   133 1   
   131    71    72 1   
   132    71   134 1   
   133    72    73 1   
   134    72   135 1   
   135    73    74 1   
   136    73   136 1   
   137    75    76 1   
   138    75    80 1   
   139    76    77 1   
   140    76   137 1   
   141    77    78 1   
   142    77   138 1   
   143    78    79 1   
   144    78   139 1   
   145    79    80 1   
   146    79   140 1   
   147    81    82 1   
   148    81    86 1   
   149    82    83 1   
   150    82   141 1   
   151    83    84 1   
   152    83   142 1   
   153    84    85 1   
   154    84   143 1   
   155    85    86 1   
   156    85   144 1   
   157    87    88 1   
   158    87    92 1   
   159    88    89 1   
   160    88   145 1   
   161    89    90 1   
   162    89   146 1   
   163    90    91 1   
   164    90   147 1   
   165    91    92 1   
   166    91   148 1   
@<TRIPOS>SUBSTRUCTURE
     1 8           1 TEMP              0 ****  ****    0 ROOT
