@<TRIPOS>MOLECULE
URE
  155   164     1     0     0
SMALL
bcc


@<TRIPOS>ATOM
      1 C           -8.1040    -0.6640     3.6790 c3         0 URE      -0.240100
      2 C1          -8.0490    -0.6710     2.1730 c          0 URE       0.591100
      3 O           -9.0660    -0.7920     1.5330 o          0 URE      -0.603100
      4 C2          -6.7260    -0.5280     1.4670 c3         0 URE      -0.162400
      5 C3          -6.9310    -0.6980    -0.0400 c3         0 URE       0.088500
      6 S           -7.7010    -2.3070    -0.3660 ss         0 URE      -0.299200
      7 C4          -6.4960    -3.4010     0.4380 c3         0 URE      -0.001800
      8 C5          -6.9570    -4.8540     0.2990 c3         0 URE      -0.041300
      9 N           -5.7810    -5.7360     0.4910 n          0 URE      -0.499900
     10 C6          -5.5130    -6.6010    -0.5240 c          0 URE       0.662700
     11 O1          -6.2660    -6.6550    -1.4780 o          0 URE      -0.637100
     12 C7          -4.3350    -7.4670    -0.4860 ca         0 URE      -0.103600
     13 C8          -3.7600    -7.9530    -1.6930 ca         0 URE      -0.014000
     14 C9          -4.4830    -7.9240    -2.8940 ca         0 URE      -0.121250
     15 C10         -3.8820    -8.3230    -4.0470 ca         0 URE      -0.140750
     16 C11         -2.5580    -8.7600    -4.0590 ca         0 URE      -0.147500
     17 C12         -1.8140    -8.8300    -2.9240 ca         0 URE      -0.110250
     18 C13         -2.3800    -8.4580    -1.6920 ca         0 URE      -0.021250
     19 C14         -1.6620    -8.5360    -0.4790 ca         0 URE      -0.091100
     20 C15         -2.3920    -8.4400     0.7390 ca         0 URE      -0.021250
     21 C16         -1.8250    -8.8390     1.9610 ca         0 URE      -0.110250
     22 C17         -2.5440    -8.6940     3.1080 ca         0 URE      -0.147500
     23 C18         -3.8240    -8.1440     3.1080 ca         0 URE      -0.140750
     24 C19         -4.4220    -7.7260     1.9590 ca         0 URE      -0.121250
     25 C20         -3.7460    -7.8710     0.7380 ca         0 URE      -0.014000
     26 C21         -0.2040    -8.5770    -0.4130 c          0 URE       0.659700
     27 O2           0.3200    -9.3450     0.3710 o          0 URE      -0.638600
     28 N1           0.5910    -7.8000    -1.1840 n          0 URE      -0.485900
     29 C22          2.0490    -7.9420    -0.9650 c3         0 URE      -0.036300
     30 C23          2.7020    -6.5650    -1.0780 c3         0 URE       0.067200
     31 S1           4.0360    -6.3940     0.1400 ss         0 URE      -0.473600
     32 S2           5.3410    -5.2300    -0.9200 ss         0 URE      -0.056100
     33 C24          6.2200    -4.4140     0.4420 c3         0 URE      -0.025800
     34 C25          7.6440    -4.0710     0.0080 c3         0 URE      -0.027800
     35 N2           7.7520    -2.6150    -0.2200 n          0 URE      -0.504900
     36 C26          8.8360    -2.0150     0.3440 c          0 URE       0.664700
     37 O3           9.5830    -2.6550     1.0580 o          0 URE      -0.625100
     38 C27          9.1000    -0.6030     0.0900 ca         0 URE      -0.099100
     39 C28          8.9920    -0.0270    -1.1980 ca         0 URE      -0.015000
     40 C29          9.0210    -0.8250    -2.3520 ca         0 URE      -0.117750
     41 C30          8.9340    -0.2390    -3.5770 ca         0 URE      -0.137500
     42 C31          8.7900     1.1410    -3.7130 ca         0 URE      -0.137500
     43 C32          8.7260     1.9640    -2.6320 ca         0 URE      -0.117750
     44 C33          8.8390     1.4290    -1.3390 ca         0 URE      -0.015000
     45 C34          8.8070     2.2490    -0.1860 ca         0 URE      -0.099100
     46 C35          9.2920     1.7020     1.0340 ca         0 URE      -0.015000
     47 C36          9.6020     2.5140     2.1370 ca         0 URE      -0.117750
     48 C37         10.0370     1.9390     3.2910 ca         0 URE      -0.137500
     49 C38         10.1810     0.5590     3.4220 ca         0 URE      -0.137500
     50 C39          9.8940    -0.2830     2.3920 ca         0 URE      -0.117750
     51 C40          9.4480     0.2500     1.1740 ca         0 URE      -0.015000
     52 C41          8.1930     3.5770    -0.1940 c          0 URE       0.664700
     53 O4           8.5780     4.4150     0.5990 o          0 URE      -0.625100
     54 N3           7.2040     3.8950    -1.0670 n          0 URE      -0.504900
     55 C42          6.5970     5.2370    -0.9190 c3         0 URE      -0.027800
     56 C43          5.0840     5.1150    -1.0920 c3         0 URE      -0.025800
     57 S3           4.2270     6.2080     0.0720 ss         0 URE      -0.056100
     58 S4           2.7050     6.8850    -1.1260 ss         0 URE      -0.473600
     59 C44          1.4200     7.1780     0.1170 c3         0 URE       0.067200
     60 C45          0.5280     8.3340    -0.3310 c3         0 URE      -0.036300
     61 N4          -0.8220     7.8250    -0.6550 n          0 URE      -0.485900
     62 C46         -1.8340     8.3750     0.0720 c          0 URE       0.659700
     63 O5          -1.5850     9.1800     0.9480 o          0 URE      -0.638600
     64 C47         -3.2210     7.9970    -0.2010 ca         0 URE      -0.091100
     65 C48         -3.6480     7.6090    -1.4920 ca         0 URE      -0.021250
     66 C49         -2.8860     7.9170    -2.6310 ca         0 URE      -0.110250
     67 C50         -3.3320     7.5390    -3.8590 ca         0 URE      -0.147500
     68 C51         -4.5250     6.8360    -4.0140 ca         0 URE      -0.140750
     69 C52         -5.2920     6.4820    -2.9480 ca         0 URE      -0.121250
     70 C53         -4.9010     6.8560    -1.6520 ca         0 URE      -0.014000
     71 C54         -5.6750     6.5290    -0.5150 ca         0 URE      -0.103600
     72 C55         -5.4190     7.2290     0.6930 ca         0 URE      -0.014000
     73 C56         -6.3240     7.2030     1.7670 ca         0 URE      -0.121250
     74 C57         -6.0200     7.8640     2.9160 ca         0 URE      -0.140750
     75 C58         -4.8280     8.5690     3.0720 ca         0 URE      -0.147500
     76 C59         -3.9140     8.6390     2.0670 ca         0 URE      -0.110250
     77 C60         -4.1690     7.9810     0.8540 ca         0 URE      -0.021250
     78 C61         -6.6510     5.4340    -0.5270 c          0 URE       0.662700
     79 O6          -7.6300     5.5000     0.1910 o          0 URE      -0.637100
     80 N5          -6.4830     4.3500    -1.3270 n          0 URE      -0.499900
     81 C62         -7.4960     3.2760    -1.2120 c3         0 URE      -0.041300
     82 C63         -6.7800     1.9700    -0.8550 c3         0 URE      -0.001800
     83 S5          -8.0050     0.6260    -0.6570 ss         0 URE      -0.299200
     84 C64         -8.4830     3.6260    -0.1280 c          0 URE       0.904100
     85 O7          -9.6000     4.0160    -0.4230 o          0 URE      -0.843300
     86 O8          -8.1650     3.5180     1.0440 o          0 URE      -0.843300
     87 C65          0.4290     9.3490     0.7780 c          0 URE       0.901100
     88 O9           0.3860    10.5390     0.5140 o          0 URE      -0.847300
     89 O10          0.3910     8.9810     1.9400 o          0 URE      -0.847300
     90 C66          6.9070     5.7830     0.4510 c          0 URE       0.889100
     91 O11          7.4290     6.8780     0.5670 o          0 URE      -0.780300
     92 O12          6.6350     5.1290     1.4430 o          0 URE      -0.780300
     93 C67          8.6120    -4.4840     1.0870 c          0 URE       0.889100
     94 O13          9.6000    -5.1390     0.8020 o          0 URE      -0.780300
     95 O14          8.4070    -4.1630     2.2450 o          0 URE      -0.780300
     96 C68          2.3000    -8.5090     0.4080 c          0 URE       0.901100
     97 O15          3.0210    -9.4830     0.5430 o          0 URE      -0.847300
     98 O16          1.7830    -7.9930     1.3850 o          0 URE      -0.847300
     99 C69         -7.9980    -5.1580     1.3460 c          0 URE       0.904100
    100 O17         -9.1790    -4.9770     1.1030 o          0 URE      -0.843300
    101 O18         -7.6580    -5.5870     2.4360 o          0 URE      -0.843300
    102 H           -9.1380    -0.7780     4.0060 hc         0 URE       0.086033
    103 H1          -7.5070    -1.4890     4.0690 hc         0 URE       0.086033
    104 H2          -7.7070     0.2800     4.0530 hc         0 URE       0.086033
    105 H3          -6.3120     0.4600     1.6680 hc         0 URE       0.076700
    106 H4          -6.0360    -1.2910     1.8280 hc         0 URE       0.076700
    107 H5          -5.9660    -0.6480    -0.5450 h2         0 URE       0.145700
    108 H6          -5.5220    -3.2810    -0.0390 h1         0 URE       0.072700
    109 H7          -6.4180    -3.1430     1.4940 h1         0 URE       0.072700
    110 H8          -7.3770    -5.0130    -0.6950 h1         0 URE       0.085700
    111 H9          -5.2350    -5.6990     1.2920 hn         0 URE       0.307000
    112 H10         -5.5090    -7.5880    -2.9030 ha         0 URE       0.171750
    113 H11         -4.4410    -8.3010    -4.9700 ha         0 URE       0.118250
    114 H12         -2.1120    -9.0510    -4.9980 ha         0 URE       0.120000
    115 H13         -0.7900    -9.1700    -2.9680 ha         0 URE       0.178750
    116 H14         -0.8290    -9.2560     1.9900 ha         0 URE       0.178750
    117 H15         -2.1100    -9.0150     4.0430 ha         0 URE       0.120000
    118 H16         -4.3550    -8.0480     4.0430 ha         0 URE       0.118250
    119 H17         -5.4080    -7.2870     1.9870 ha         0 URE       0.171750
    120 H18          0.2280    -7.1860    -1.8420 hn         0 URE       0.304500
    121 H19          2.4680    -8.6070    -1.7190 h1         0 URE       0.089700
    122 H20          3.1120    -6.4410    -2.0800 h1         0 URE       0.063700
    123 H21          1.9520    -5.7940    -0.9000 h1         0 URE       0.063700
    124 H22          5.6950    -3.5000     0.7160 h1         0 URE       0.073200
    125 H23          6.2550    -5.0830     1.3030 h1         0 URE       0.073200
    126 H24          7.8800    -4.6020    -0.9150 h1         0 URE       0.094700
    127 H25          7.0950    -2.1200    -0.7350 hn         0 URE       0.308000
    128 H26          9.1110    -1.8980    -2.2690 ha         0 URE       0.169500
    129 H27          8.9780    -0.8550    -4.4630 ha         0 URE       0.124500
    130 H28          8.7280     1.5670    -4.7030 ha         0 URE       0.124500
    131 H29          8.5880     3.0270    -2.7690 ha         0 URE       0.169500
    132 H30          9.4960     3.5860     2.0700 ha         0 URE       0.169500
    133 H31         10.2780     2.5720     4.1310 ha         0 URE       0.124500
    134 H32         10.5270     0.1500     4.3600 ha         0 URE       0.124500
    135 H33         10.0120    -1.3500     2.5110 ha         0 URE       0.169500
    136 H34          6.9100     3.2740    -1.7520 hn         0 URE       0.308000
    137 H35          7.0000     5.9050    -1.6800 h1         0 URE       0.094700
    138 H36          4.8140     5.3920    -2.1120 h1         0 URE       0.073200
    139 H37          4.7810     4.0840    -0.9090 h1         0 URE       0.073200
    140 H38          0.8150     6.2780     0.2340 h1         0 URE       0.063700
    141 H39          1.8860     7.4270     1.0700 h1         0 URE       0.063700
    142 H40          0.9610     8.8040    -1.2140 h1         0 URE       0.089700
    143 H41         -0.9750     7.1510    -1.3350 hn         0 URE       0.304500
    144 H42         -1.9520     8.4510    -2.5320 ha         0 URE       0.178750
    145 H43         -2.7490     7.7890    -4.7330 ha         0 URE       0.120000
    146 H44         -4.8500     6.5660    -5.0080 ha         0 URE       0.118250
    147 H45         -6.1990     5.9160    -3.0980 ha         0 URE       0.171750
    148 H46         -7.2550     6.6610     1.6800 ha         0 URE       0.171750
    149 H47         -6.7250     7.8420     3.7340 ha         0 URE       0.118250
    150 H48         -4.6270     9.0690     4.0080 ha         0 URE       0.120000
    151 H49         -2.9980     9.1950     2.2020 ha         0 URE       0.178750
    152 H50         -5.7360     4.2820    -1.9430 hn         0 URE       0.307000
    153 H51         -8.0170     3.1610    -2.1620 h1         0 URE       0.085700
    154 H52         -6.0850     1.7070    -1.6520 h1         0 URE       0.072700
    155 H53         -6.2310     2.0990     0.0780 h1         0 URE       0.072700
@<TRIPOS>BOND
     1     1     2 1   
     2     1   102 1   
     3     1   103 1   
     4     1   104 1   
     5     2     3 2   
     6     2     4 1   
     7     4     5 1   
     8     4   105 1   
     9     4   106 1   
    10     5     6 1   
    11     5    83 1   
    12     5   107 1   
    13     6     7 1   
    14     7     8 1   
    15     7   108 1   
    16     7   109 1   
    17     8     9 1   
    18     8    99 1   
    19     8   110 1   
    20     9    10 1   
    21     9   111 1   
    22    10    11 2   
    23    10    12 1   
    24    12    13 ar  
    25    12    25 ar  
    26    13    14 ar  
    27    13    18 ar  
    28    14    15 ar  
    29    14   112 1   
    30    15    16 ar  
    31    15   113 1   
    32    16    17 ar  
    33    16   114 1   
    34    17    18 ar  
    35    17   115 1   
    36    18    19 ar  
    37    19    20 ar  
    38    19    26 1   
    39    20    21 ar  
    40    20    25 ar  
    41    21    22 ar  
    42    21   116 1   
    43    22    23 ar  
    44    22   117 1   
    45    23    24 ar  
    46    23   118 1   
    47    24    25 ar  
    48    24   119 1   
    49    26    27 2   
    50    26    28 1   
    51    28    29 1   
    52    28   120 1   
    53    29    30 1   
    54    29    96 1   
    55    29   121 1   
    56    30    31 1   
    57    30   122 1   
    58    30   123 1   
    59    31    32 1   
    60    32    33 1   
    61    33    34 1   
    62    33   124 1   
    63    33   125 1   
    64    34    35 1   
    65    34    93 1   
    66    34   126 1   
    67    35    36 1   
    68    35   127 1   
    69    36    37 2   
    70    36    38 1   
    71    38    39 ar  
    72    38    51 ar  
    73    39    40 ar  
    74    39    44 ar  
    75    40    41 ar  
    76    40   128 1   
    77    41    42 ar  
    78    41   129 1   
    79    42    43 ar  
    80    42   130 1   
    81    43    44 ar  
    82    43   131 1   
    83    44    45 ar  
    84    45    46 ar  
    85    45    52 1   
    86    46    47 ar  
    87    46    51 ar  
    88    47    48 ar  
    89    47   132 1   
    90    48    49 ar  
    91    48   133 1   
    92    49    50 ar  
    93    49   134 1   
    94    50    51 ar  
    95    50   135 1   
    96    52    53 2   
    97    52    54 1   
    98    54    55 1   
    99    54   136 1   
   100    55    56 1   
   101    55    90 1   
   102    55   137 1   
   103    56    57 1   
   104    56   138 1   
   105    56   139 1   
   106    57    58 1   
   107    58    59 1   
   108    59    60 1   
   109    59   140 1   
   110    59   141 1   
   111    60    61 1   
   112    60    87 1   
   113    60   142 1   
   114    61    62 1   
   115    61   143 1   
   116    62    63 2   
   117    62    64 1   
   118    64    65 ar  
   119    64    77 ar  
   120    65    66 ar  
   121    65    70 ar  
   122    66    67 ar  
   123    66   144 1   
   124    67    68 ar  
   125    67   145 1   
   126    68    69 ar  
   127    68   146 1   
   128    69    70 ar  
   129    69   147 1   
   130    70    71 ar  
   131    71    72 ar  
   132    71    78 1   
   133    72    73 ar  
   134    72    77 ar  
   135    73    74 ar  
   136    73   148 1   
   137    74    75 ar  
   138    74   149 1   
   139    75    76 ar  
   140    75   150 1   
   141    76    77 ar  
   142    76   151 1   
   143    78    79 2   
   144    78    80 1   
   145    80    81 1   
   146    80   152 1   
   147    81    82 1   
   148    81    84 1   
   149    81   153 1   
   150    82    83 1   
   151    82   154 1   
   152    82   155 1   
   153    84    85 1   
   154    84    86 1   
   155    87    88 1   
   156    87    89 1   
   157    90    91 1   
   158    90    92 1   
   159    93    94 1   
   160    93    95 1   
   161    96    97 1   
   162    96    98 1   
   163    99   100 1   
   164    99   101 1   
@<TRIPOS>SUBSTRUCTURE
     1 URE         1 TEMP              0 ****  ****    0 ROOT
