@<TRIPOS>MOLECULE
140
  136   142     1     0     0
SMALL
bcc


@<TRIPOS>ATOM
      1 O1          -4.4830    -2.3390     4.6850 o          1 140      -0.609350
      2 C1          -4.5470    -1.3220     4.0090 c          1 140       0.568350
      3 N1          -4.2160    -1.2510     2.6710 n          1 140      -0.547400
      4 C2          -3.3110    -2.1970     2.0460 c3         1 140       0.078500
      5 C3          -1.8580    -1.8910     2.4520 c3         1 140       0.159050
      6 N2          -0.7790    -2.3350     1.5690 n3         1 140      -0.751100
      7 C4          -0.7150    -1.6270     0.2840 c3         1 140       0.155800
      8 C5          -1.3710    -2.2630    -0.9630 c3         1 140       0.143550
      9 N3          -1.6290    -1.2270    -1.9640 n3         1 140      -0.817950
     10 C6          -2.0240    -1.7880    -3.2630 c3         1 140       0.113250
     11 C7          -2.3290    -0.6830    -4.2650 ca         1 140       0.405100
     12 C8          -3.3780    -0.8190    -5.1680 ca         1 140      -0.236800
     13 C9          -3.6690     0.2420    -6.0220 ca         1 140      -0.093500
     14 C10         -2.9140     1.4090    -5.9500 ca         1 140      -0.236800
     15 C11         -1.8590     1.4670    -5.0470 ca         1 140       0.405100
     16 C12         -1.0570     2.7420    -4.8690 c3         1 140       0.113250
     17 N4          -1.6150     3.6980    -3.8870 n3         1 140      -0.817950
     18 C13         -1.7140     3.0690    -2.5560 c3         1 140       0.143550
     19 C14         -2.0160     4.1010    -1.4400 c3         1 140       0.155800
     20 N5          -2.1580     3.5710    -0.0580 n3         1 140      -0.751100
     21 C15         -3.3930     2.7480     0.0310 c3         1 140       0.159050
     22 C16         -3.8140     2.3460     1.4570 c3         1 140       0.078500
     23 N6          -3.9610     3.4890     2.3390 n          1 140      -0.547400
     24 C17         -4.4320     3.5420     3.6310 c          1 140       0.568350
     25 O2          -4.4830     4.6380     4.1910 o          1 140      -0.609350
     26 C18         -4.8690     2.3090     4.3780 ca         1 140       0.359550
     27 C19         -5.4510     2.4650     5.6360 ca         1 140      -0.179550
     28 C20         -5.7810     1.3310     6.3780 ca         1 140      -0.109500
     29 C21         -5.5090     0.0720     5.8560 ca         1 140      -0.179550
     30 C22         -4.9370     0.0040     4.5950 ca         1 140       0.359550
     31 N7          -4.6220     1.0930     3.8340 nb         1 140      -0.641500
     32 C23         -0.9810     2.7910     0.3950 c3         1 140       0.172800
     33 C24          0.4000     3.4970     0.3020 c3         1 140       0.172800
     34 N8           1.5200     2.5840     0.6410 n3         1 140      -0.751100
     35 C25          2.8360     3.1220     0.2140 c3         1 140       0.155800
     36 C26          3.0130     3.3330    -1.3090 c3         1 140       0.143550
     37 N9           2.4370     2.2700    -2.1410 n3         1 140      -0.817950
     38 C27          3.3630     1.1390    -2.3200 c3         1 140       0.113250
     39 C28          2.8540     0.1380    -3.3480 ca         1 140       0.405100
     40 C29          2.3580     0.5910    -4.5710 ca         1 140      -0.236800
     41 C30          1.8880    -0.3290    -5.5000 ca         1 140      -0.093500
     42 C31          1.9500    -1.6820    -5.2020 ca         1 140      -0.236800
     43 C32          2.4960    -2.0730    -3.9840 ca         1 140       0.405100
     44 C33          2.6000    -3.5440    -3.6360 c3         1 140       0.113250
     45 N10          1.5550    -3.9400    -2.6880 n3         1 140      -0.817950
     46 C34          1.8620    -5.2280    -2.0570 c3         1 140       0.143550
     47 C35          1.3610    -5.2620    -0.5890 c3         1 140       0.155800
     48 N11          1.6090    -4.0170     0.1840 n3         1 140      -0.751100
     49 C36          3.0530    -3.7100     0.2950 c3         1 140       0.159050
     50 C37          3.3410    -2.3010     0.8610 c3         1 140       0.078500
     51 N12          4.5870    -1.7420     0.3520 n          1 140      -0.547400
     52 C38          5.3770    -0.7600     0.9060 c          1 140       0.568350
     53 O3           6.3090    -0.3000     0.2440 o          1 140      -0.609350
     54 C39          5.1610    -0.2640     2.3010 ca         1 140       0.359550
     55 C40          6.2770     0.1180     3.0400 ca         1 140      -0.179550
     56 C41          6.0900     0.5780     4.3390 ca         1 140      -0.109500
     57 C42          4.7990     0.6510     4.8500 ca         1 140      -0.179550
     58 C43          3.7330     0.2820     4.0330 ca         1 140       0.359550
     59 N13          3.8910    -0.1710     2.7660 nb         1 140      -0.641500
     60 C44          2.3480     0.3570     4.6000 c          1 140       0.568350
     61 O4           2.1910     0.3110     5.8210 o          1 140      -0.609350
     62 N14          1.2360     0.5060     3.8020 n          1 140      -0.547400
     63 C45          1.1540     0.8350     2.3860 c3         1 140       0.078500
     64 C46          1.5600     2.2880     2.0920 c3         1 140       0.159050
     65 C47          0.9750    -4.1180     1.5180 c3         1 140       0.172800
     66 C48         -0.5400    -3.7770     1.5490 c3         1 140       0.172800
     67 N15          2.9400    -1.1840    -3.0490 nb         1 140      -0.676000
     68 N16         -1.5470     0.4280    -4.2300 nb         1 140      -0.676000
     69 H1          -4.2270    -0.3090     2.2950 hn         1 140       0.327500
     70 H2          -3.4680    -2.0750     0.9740 h1         1 140       0.060075
     71 H3          -3.5860    -3.2180     2.3310 h1         1 140       0.060075
     72 H4          -1.6840    -2.2880     3.4610 h1         1 140       0.047825
     73 H5          -1.7500    -0.8060     2.5830 h1         1 140       0.047825
     74 H6          -1.1280    -0.6190     0.4240 h1         1 140       0.048450
     75 H7           0.3400    -1.4480     0.0460 h1         1 140       0.048450
     76 H8          -2.3200    -2.7400    -0.7040 h1         1 140       0.044700
     77 H9          -0.7140    -3.0390    -1.3640 h1         1 140       0.044700
     78 H10         -0.7850    -0.6750    -2.1420 hn         1 140       0.373300
     79 H11         -1.2240    -2.4120    -3.6770 h1         1 140       0.053950
     80 H12         -2.9170    -2.4110    -3.1300 h1         1 140       0.053950
     81 H13         -3.9810    -1.7200    -5.1930 ha         1 140       0.144500
     82 H14         -4.4980     0.1700    -6.7210 ha         1 140       0.136500
     83 H15         -3.1570     2.2620    -6.5750 ha         1 140       0.144500
     84 H16         -0.0310     2.4810    -4.5830 h1         1 140       0.053950
     85 H17         -0.9780     3.2490    -5.8370 h1         1 140       0.053950
     86 H18         -0.9640     4.4800    -3.8250 hn         1 140       0.373300
     87 H19         -0.7750     2.5530    -2.3260 h1         1 140       0.044700
     88 H20         -2.5200     2.3300    -2.5730 h1         1 140       0.044700
     89 H21         -2.9340     4.6450    -1.6990 h1         1 140       0.048450
     90 H22         -1.2380     4.8740    -1.4390 h1         1 140       0.048450
     91 H23         -4.2260     3.3250    -0.3920 h1         1 140       0.047825
     92 H24         -3.3010     1.8320    -0.5660 h1         1 140       0.047825
     93 H25         -4.7790     1.8310     1.4060 h1         1 140       0.060075
     94 H26         -3.0830     1.6620     1.8980 h1         1 140       0.060075
     95 H27         -3.5930     4.3700     1.9940 hn         1 140       0.327500
     96 H28         -5.6290     3.4570     6.0430 ha         1 140       0.169750
     97 H29         -6.2260     1.4330     7.3650 ha         1 140       0.150500
     98 H30         -5.7250    -0.8300     6.4200 ha         1 140       0.169750
     99 H31         -0.9290     1.8390    -0.1500 h1         1 140       0.039575
    100 H32         -1.1350     2.5430     1.4500 h1         1 140       0.039575
    101 H33          0.4150     4.3930     0.9350 h1         1 140       0.039575
    102 H34          0.5260     3.8410    -0.7250 h1         1 140       0.039575
    103 H35          3.6090     2.4040     0.5180 h1         1 140       0.048450
    104 H36          3.0500     4.0660     0.7310 h1         1 140       0.048450
    105 H37          2.5090     4.2660    -1.5880 h1         1 140       0.044700
    106 H38          4.0730     3.4960    -1.5430 h1         1 140       0.044700
    107 H39          1.6190     1.9040    -1.6450 hn         1 140       0.373300
    108 H40          4.3380     1.4930    -2.6740 h1         1 140       0.053950
    109 H41          3.5160     0.6270    -1.3630 h1         1 140       0.053950
    110 H42          2.3190     1.6540    -4.7860 ha         1 140       0.144500
    111 H43          1.4650     0.0090    -6.4410 ha         1 140       0.136500
    112 H44          1.5770    -2.4160    -5.9090 ha         1 140       0.144500
    113 H45          3.6010    -3.6950    -3.2120 h1         1 140       0.053950
    114 H46          2.5360    -4.1590    -4.5420 h1         1 140       0.053950
    115 H47          1.5490    -3.2330    -1.9400 hn         1 140       0.373300
    116 H48          2.9390    -5.4340    -2.0500 h1         1 140       0.044700
    117 H49          1.3870    -6.0350    -2.6260 h1         1 140       0.044700
    118 H50          0.2790    -5.4400    -0.6300 h1         1 140       0.048450
    119 H51          1.8090    -6.1280    -0.0840 h1         1 140       0.048450
    120 H52          3.5670    -4.4650     0.9050 h1         1 140       0.047825
    121 H53          3.5180    -3.7560    -0.6940 h1         1 140       0.047825
    122 H54          3.3740    -2.3550     1.9510 h1         1 140       0.060075
    123 H55          2.5610    -1.5970     0.5600 h1         1 140       0.060075
    124 H56          4.7330    -1.8160    -0.6500 hn         1 140       0.327500
    125 H57          7.2740     0.0480     2.6140 ha         1 140       0.169750
    126 H58          6.9410     0.8700     4.9480 ha         1 140       0.150500
    127 H59          4.6250     0.9960     5.8650 ha         1 140       0.169750
    128 H60          0.3780     0.5530     4.3360 hn         1 140       0.327500
    129 H61          0.1110     0.6770     2.1000 h1         1 140       0.060075
    130 H62          1.7520     0.1300     1.8090 h1         1 140       0.060075
    131 H63          0.9180     2.9710     2.6650 h1         1 140       0.047825
    132 H64          2.5650     2.4560     2.5000 h1         1 140       0.047825
    133 H65          1.1220    -5.1280     1.9250 h1         1 140       0.039575
    134 H66          1.4610    -3.4520     2.2410 h1         1 140       0.039575
    135 H67         -0.9150    -4.2120     2.4870 h1         1 140       0.039575
    136 H68         -1.0990    -4.2860     0.7580 h1         1 140       0.039575
@<TRIPOS>BOND
     1     1     2 2   
     2     2     3 1   
     3     2    30 1   
     4     3     4 1   
     5     3    69 1   
     6     4     5 1   
     7     4    70 1   
     8     4    71 1   
     9     5     6 1   
    10     5    72 1   
    11     5    73 1   
    12     6     7 1   
    13     6    66 1   
    14     7     8 1   
    15     7    74 1   
    16     7    75 1   
    17     8     9 1   
    18     8    76 1   
    19     8    77 1   
    20     9    10 1   
    21     9    78 1   
    22    10    11 1   
    23    10    79 1   
    24    10    80 1   
    25    11    12 ar  
    26    11    68 ar  
    27    12    13 ar  
    28    12    81 1   
    29    13    14 ar  
    30    13    82 1   
    31    14    15 ar  
    32    14    83 1   
    33    15    16 1   
    34    15    68 ar  
    35    16    17 1   
    36    16    84 1   
    37    16    85 1   
    38    17    18 1   
    39    17    86 1   
    40    18    19 1   
    41    18    87 1   
    42    18    88 1   
    43    19    20 1   
    44    19    89 1   
    45    19    90 1   
    46    20    21 1   
    47    20    32 1   
    48    21    22 1   
    49    21    91 1   
    50    21    92 1   
    51    22    23 1   
    52    22    93 1   
    53    22    94 1   
    54    23    24 1   
    55    23    95 1   
    56    24    25 2   
    57    24    26 1   
    58    26    27 ar  
    59    26    31 ar  
    60    27    28 ar  
    61    27    96 1   
    62    28    29 ar  
    63    28    97 1   
    64    29    30 ar  
    65    29    98 1   
    66    30    31 ar  
    67    32    33 1   
    68    32    99 1   
    69    32   100 1   
    70    33    34 1   
    71    33   101 1   
    72    33   102 1   
    73    34    35 1   
    74    34    64 1   
    75    35    36 1   
    76    35   103 1   
    77    35   104 1   
    78    36    37 1   
    79    36   105 1   
    80    36   106 1   
    81    37    38 1   
    82    37   107 1   
    83    38    39 1   
    84    38   108 1   
    85    38   109 1   
    86    39    40 ar  
    87    39    67 ar  
    88    40    41 ar  
    89    40   110 1   
    90    41    42 ar  
    91    41   111 1   
    92    42    43 ar  
    93    42   112 1   
    94    43    44 1   
    95    43    67 ar  
    96    44    45 1   
    97    44   113 1   
    98    44   114 1   
    99    45    46 1   
   100    45   115 1   
   101    46    47 1   
   102    46   116 1   
   103    46   117 1   
   104    47    48 1   
   105    47   118 1   
   106    47   119 1   
   107    48    49 1   
   108    48    65 1   
   109    49    50 1   
   110    49   120 1   
   111    49   121 1   
   112    50    51 1   
   113    50   122 1   
   114    50   123 1   
   115    51    52 1   
   116    51   124 1   
   117    52    53 2   
   118    52    54 1   
   119    54    55 ar  
   120    54    59 ar  
   121    55    56 ar  
   122    55   125 1   
   123    56    57 ar  
   124    56   126 1   
   125    57    58 ar  
   126    57   127 1   
   127    58    59 ar  
   128    58    60 1   
   129    60    61 2   
   130    60    62 1   
   131    62    63 1   
   132    62   128 1   
   133    63    64 1   
   134    63   129 1   
   135    63   130 1   
   136    64   131 1   
   137    64   132 1   
   138    65    66 1   
   139    65   133 1   
   140    65   134 1   
   141    66   135 1   
   142    66   136 1   
@<TRIPOS>SUBSTRUCTURE
     1 140         1 TEMP              0 ****  ****    0 ROOT
