@<TRIPOS>MOLECULE
163
   66    72     1     0     0
SMALL
bcc


@<TRIPOS>ATOM
      1 C           -4.6020     3.0870     0.1230 c3         0 163       0.074600
      2 C1          -4.8760     1.6190    -0.1010 cc         0 163      -0.192900
      3 C2          -5.4320     1.0020    -1.1730 cd         0 163      -0.096500
      4 C3          -5.5680    -0.3750    -1.1560 cd         0 163      -0.096500
      5 C4          -5.1400    -1.0650    -0.0740 cc         0 163      -0.192900
      6 C5          -5.1300    -2.5550     0.1810 c3         0 163       0.074600
      7 N           -3.7280    -2.9860     0.1520 na         0 163       0.040400
      8 C6          -3.0690    -3.1560     1.2820 cc         0 163      -0.010050
      9 C7          -1.7160    -3.4380     1.2760 cd         0 163      -0.127250
     10 C8          -1.0500    -3.5370     0.0500 cd         0 163       0.041000
     11 C9          -1.8180    -3.4940    -1.1190 cd         0 163      -0.127250
     12 C10         -3.1650    -3.2090    -1.0230 cc         0 163      -0.010050
     13 C11          0.4310    -3.5320    -0.0140 cc         0 163       0.041000
     14 C12          1.1970    -3.4220     1.1510 cc         0 163      -0.127250
     15 C13          2.5660    -3.3030     1.0430 cd         0 163      -0.010050
     16 N1           3.1550    -3.3070    -0.1380 na         0 163       0.040400
     17 C14          4.6010    -3.0790    -0.2020 c3         0 163       0.074600
     18 C15          4.8820    -1.6210     0.0650 cc         0 163      -0.192900
     19 C16          5.4860    -1.0420     1.1310 cd         0 163      -0.096500
     20 C17          5.6220     0.3350     1.1610 cd         0 163      -0.096500
     21 C18          5.1470     1.0620     0.1220 cc         0 163      -0.192900
     22 C19          5.1350     2.5620    -0.0780 c3         0 163       0.074600
     23 N2           3.7300     2.9850    -0.0860 na         0 163       0.040400
     24 C20          3.1520     3.2970     1.0600 cc         0 163      -0.010050
     25 C21          1.8020     3.5800     1.1200 cd         0 163      -0.127250
     26 C22          1.0480     3.5280    -0.0580 cd         0 163       0.041000
     27 C23          1.7290     3.3350    -1.2650 cd         0 163      -0.127250
     28 C24          3.0820     3.0600    -1.2340 cc         0 163      -0.010050
     29 C25         -0.4340     3.5280    -0.0120 cc         0 163       0.041000
     30 C26         -1.1930     3.5020    -1.1860 cc         0 163      -0.127250
     31 C27         -2.5640     3.3830    -1.0920 cd         0 163      -0.010050
     32 N3          -3.1550     3.3130     0.0830 na         0 163       0.040400
     33 C28         -2.4810     3.4270     1.2110 cd         0 163      -0.010050
     34 C29         -1.1120     3.5340     1.2110 cc         0 163      -0.127250
     35 S            4.5080    -0.2060    -0.9590 ss         0 163       0.112200
     36 C30          2.4780    -3.4950    -1.2550 cd         0 163      -0.010050
     37 C31          1.1030    -3.6170    -1.2370 cc         0 163      -0.127250
     38 S1          -4.5550     0.2450     0.9910 ss         0 163       0.112200
     39 H           -5.0850     3.6720    -0.6600 h1         0 163       0.138450
     40 H1          -4.9910     3.3860     1.0960 h1         0 163       0.138450
     41 H2          -5.7640     1.5750    -2.0260 ha         0 163       0.197000
     42 H3          -6.0100    -0.8920    -1.9950 ha         0 163       0.197000
     43 H4          -5.5650    -2.7680     1.1580 h1         0 163       0.138450
     44 H5          -5.6940    -3.0690    -0.5970 h1         0 163       0.138450
     45 H6          -3.5930    -3.0740     2.2220 h4         0 163       0.232000
     46 H7          -1.1820    -3.5790     2.2040 ha         0 163       0.206750
     47 H8          -1.3640    -3.6810    -2.0800 ha         0 163       0.206750
     48 H9          -3.7660    -3.1690    -1.9190 h4         0 163       0.232000
     49 H10          0.7220    -3.4300     2.1210 ha         0 163       0.206750
     50 H11          3.1650    -3.2050     1.9360 h4         0 163       0.232000
     51 H12          5.0990    -3.6900     0.5510 h1         0 163       0.138450
     52 H13          4.9690    -3.3460    -1.1920 h1         0 163       0.138450
     53 H14          5.8560    -1.6460     1.9450 ha         0 163       0.197000
     54 H15          6.0990     0.8210     1.9990 ha         0 163       0.197000
     55 H16          5.6660     3.0500     0.7390 h1         0 163       0.138450
     56 H17          5.6040     2.8140    -1.0290 h1         0 163       0.138450
     57 H18          3.7440     3.3310     1.9630 h4         0 163       0.232000
     58 H19          1.3360     3.8370     2.0590 ha         0 163       0.206750
     59 H20          1.2030     3.3980    -2.2060 ha         0 163       0.206750
     60 H21          3.6170     2.9060    -2.1600 h4         0 163       0.232000
     61 H22         -0.7130     3.5740    -2.1510 ha         0 163       0.206750
     62 H23         -3.1590     3.3500    -1.9930 h4         0 163       0.232000
     63 H24         -3.0120     3.4310     2.1510 h4         0 163       0.232000
     64 H25         -0.5700     3.6300     2.1400 ha         0 163       0.206750
     65 H26          3.0060    -3.5550    -2.1950 h4         0 163       0.232000
     66 H27          0.5550    -3.7750    -2.1540 ha         0 163       0.206750
@<TRIPOS>BOND
     1     1     2 1   
     2     1    32 1   
     3     1    39 1   
     4     1    40 1   
     5     2     3 2   
     6     2    38 1   
     7     3     4 1   
     8     3    41 1   
     9     4     5 2   
    10     4    42 1   
    11     5     6 1   
    12     5    38 1   
    13     6     7 1   
    14     6    43 1   
    15     6    44 1   
    16     7     8 1   
    17     7    12 1   
    18     8     9 2   
    19     8    45 1   
    20     9    10 1   
    21     9    46 1   
    22    10    11 1   
    23    10    13 2   
    24    11    12 2   
    25    11    47 1   
    26    12    48 1   
    27    13    14 1   
    28    13    37 1   
    29    14    15 2   
    30    14    49 1   
    31    15    16 1   
    32    15    50 1   
    33    16    17 1   
    34    16    36 1   
    35    17    18 1   
    36    17    51 1   
    37    17    52 1   
    38    18    19 2   
    39    18    35 1   
    40    19    20 1   
    41    19    53 1   
    42    20    21 2   
    43    20    54 1   
    44    21    22 1   
    45    21    35 1   
    46    22    23 1   
    47    22    55 1   
    48    22    56 1   
    49    23    24 1   
    50    23    28 1   
    51    24    25 2   
    52    24    57 1   
    53    25    26 1   
    54    25    58 1   
    55    26    27 1   
    56    26    29 2   
    57    27    28 2   
    58    27    59 1   
    59    28    60 1   
    60    29    30 1   
    61    29    34 1   
    62    30    31 2   
    63    30    61 1   
    64    31    32 1   
    65    31    62 1   
    66    32    33 1   
    67    33    34 2   
    68    33    63 1   
    69    34    64 1   
    70    36    37 2   
    71    36    65 1   
    72    37    66 1   
@<TRIPOS>SUBSTRUCTURE
     1 163         1 TEMP              0 ****  ****    0 ROOT
