@<TRIPOS>MOLECULE
64
   70    76     1     0     0
SMALL
bcc


@<TRIPOS>ATOM
      1 C            4.6330     0.0090     2.3450 c3         0 64       -0.082100
      2 C1           4.6960     0.0150     0.8160 c3         0 64        0.091600
      3 C2           6.1610     0.0240     0.3760 c3         0 64       -0.082100
      4 C3           4.0320    -1.2280     0.2920 cc         0 64       -0.123600
      5 C4           4.6870    -2.2920    -0.2310 cd         0 64       -0.190000
      6 C5           3.7280    -3.2630    -0.5590 cd         0 64       -0.174000
      7 C6           2.5050    -2.7520    -0.2350 cc         0 64       -0.085300
      8 N            2.6970    -1.4890     0.2620 na         0 64       -0.160100
      9 C7           1.2180    -3.4620    -0.3760 ca         0 64       -0.014000
     10 C8           0.0110    -2.7850    -0.2270 ca         0 64       -0.124000
     11 C9          -1.1920    -3.4700    -0.3820 ca         0 64       -0.014000
     12 C10         -1.1780    -4.8410    -0.6640 ca         0 64       -0.110000
     13 C11          0.0210    -5.5110    -0.7900 ca         0 64       -0.129000
     14 C12          1.2150    -4.8340    -0.6500 ca         0 64       -0.110000
     15 C13         -2.4860    -2.7680    -0.2480 cc         0 64       -0.085300
     16 C14         -3.6990    -3.2690    -0.6080 cd         0 64       -0.174000
     17 C15         -4.6620    -2.2990    -0.2910 cd         0 64       -0.190000
     18 C16         -4.0210    -1.2470     0.2650 cc         0 64       -0.123600
     19 N1          -2.6830    -1.5120     0.2650 na         0 64       -0.160100
     20 C17         -4.6930    -0.0230     0.8240 c3         0 64        0.091600
     21 C18         -6.1650    -0.0220     0.4050 c3         0 64       -0.082100
     22 C19         -4.6060    -0.0540     2.3510 c3         0 64       -0.082100
     23 C20         -4.0340     1.2310     0.3170 cc         0 64       -0.123600
     24 C21         -4.6930     2.3140    -0.1590 cd         0 64       -0.190000
     25 C22         -3.7360     3.2850    -0.4920 cd         0 64       -0.174000
     26 C23         -2.5100     2.7570    -0.2110 cc         0 64       -0.085300
     27 N2          -2.6980     1.4870     0.2660 na         0 64       -0.160100
     28 C24         -1.2210     3.4590    -0.3800 ca         0 64       -0.014000
     29 C25         -0.0130     2.7860    -0.2080 ca         0 64       -0.124000
     30 C26          1.1880     3.4660    -0.3840 ca         0 64       -0.014000
     31 C27          1.1760     4.8240    -0.7150 ca         0 64       -0.110000
     32 C28         -0.0210     5.4900    -0.8700 ca         0 64       -0.129000
     33 C29         -1.2180     4.8200    -0.7060 ca         0 64       -0.110000
     34 C30          2.4830     2.7700    -0.2200 cc         0 64       -0.085300
     35 C31          3.7020     3.2970    -0.5270 cd         0 64       -0.174000
     36 C32          4.6670     2.3340    -0.2010 cd         0 64       -0.190000
     37 C33          4.0210     1.2560     0.3010 cc         0 64       -0.123600
     38 N3           2.6820     1.5040     0.2650 na         0 64       -0.160100
     39 H            5.1280     0.9000     2.7320 hc         0 64        0.044200
     40 H1           3.5920     0.0030     2.6660 hc         0 64        0.044200
     41 H2           5.1360    -0.8800     2.7260 hc         0 64        0.044200
     42 H3           6.6610    -0.8650     0.7600 hc         0 64        0.044200
     43 H4           6.2130     0.0280    -0.7130 hc         0 64        0.044200
     44 H5           6.6530     0.9140     0.7670 hc         0 64        0.044200
     45 H6           5.7550    -2.3770    -0.3710 ha         0 64        0.153000
     46 H7           3.9220    -4.2350    -0.9880 ha         0 64        0.154000
     47 H8           1.9960    -0.8820     0.5460 hn         0 64        0.303700
     48 H9           0.0070    -1.7310     0.0100 ha         0 64        0.130000
     49 H10         -2.1090    -5.3750    -0.7820 ha         0 64        0.142000
     50 H11          0.0250    -6.5700    -0.9980 ha         0 64        0.136000
     51 H12          2.1510    -5.3640    -0.7530 ha         0 64        0.142000
     52 H13         -3.8860    -4.2340    -1.0550 ha         0 64        0.154000
     53 H14         -5.7250    -2.3790    -0.4610 ha         0 64        0.153000
     54 H15         -1.9870    -0.9120     0.5770 hn         0 64        0.303700
     55 H16         -6.6530    -0.9160     0.7910 hc         0 64        0.044200
     56 H17         -6.6570     0.8640     0.8070 hc         0 64        0.044200
     57 H18         -6.2330    -0.0120    -0.6830 hc         0 64        0.044200
     58 H19         -3.5590    -0.0670     2.6540 hc         0 64        0.044200
     59 H20         -5.0910     0.8310     2.7610 hc         0 64        0.044200
     60 H21         -5.1040    -0.9480     2.7250 hc         0 64        0.044200
     61 H22         -5.7640     2.4130    -0.2650 ha         0 64        0.153000
     62 H23         -3.9330     4.2670    -0.8960 ha         0 64        0.154000
     63 H24         -1.9950     0.8700     0.5240 hn         0 64        0.303700
     64 H25         -0.0090     1.7400     0.0620 ha         0 64        0.130000
     65 H26          2.1070     5.3530    -0.8500 ha         0 64        0.142000
     66 H27         -0.0240     6.5400    -1.1200 ha         0 64        0.136000
     67 H28         -2.1520     5.3470    -0.8310 ha         0 64        0.142000
     68 H29          3.8900     4.2750    -0.9440 ha         0 64        0.154000
     69 H30          5.7350     2.4340    -0.3290 ha         0 64        0.153000
     70 H31          1.9840     0.8870     0.5370 hn         0 64        0.303700
@<TRIPOS>BOND
     1     1     2 1   
     2     1    39 1   
     3     1    40 1   
     4     1    41 1   
     5     2     3 1   
     6     2     4 1   
     7     2    37 1   
     8     3    42 1   
     9     3    43 1   
    10     3    44 1   
    11     4     5 2   
    12     4     8 1   
    13     5     6 1   
    14     5    45 1   
    15     6     7 2   
    16     6    46 1   
    17     7     8 1   
    18     7     9 1   
    19     8    47 1   
    20     9    10 ar  
    21     9    14 ar  
    22    10    11 ar  
    23    10    48 1   
    24    11    12 ar  
    25    11    15 1   
    26    12    13 ar  
    27    12    49 1   
    28    13    14 ar  
    29    13    50 1   
    30    14    51 1   
    31    15    16 2   
    32    15    19 1   
    33    16    17 1   
    34    16    52 1   
    35    17    18 2   
    36    17    53 1   
    37    18    19 1   
    38    18    20 1   
    39    19    54 1   
    40    20    21 1   
    41    20    22 1   
    42    20    23 1   
    43    21    55 1   
    44    21    56 1   
    45    21    57 1   
    46    22    58 1   
    47    22    59 1   
    48    22    60 1   
    49    23    24 2   
    50    23    27 1   
    51    24    25 1   
    52    24    61 1   
    53    25    26 2   
    54    25    62 1   
    55    26    27 1   
    56    26    28 1   
    57    27    63 1   
    58    28    29 ar  
    59    28    33 ar  
    60    29    30 ar  
    61    29    64 1   
    62    30    31 ar  
    63    30    34 1   
    64    31    32 ar  
    65    31    65 1   
    66    32    33 ar  
    67    32    66 1   
    68    33    67 1   
    69    34    35 2   
    70    34    38 1   
    71    35    36 1   
    72    35    68 1   
    73    36    37 2   
    74    36    69 1   
    75    37    38 1   
    76    38    70 1   
@<TRIPOS>SUBSTRUCTURE
     1 64          1 TEMP              0 ****  ****    0 ROOT
