@<TRIPOS>MOLECULE
22
  102   114     1     0     0
SMALL
bcc


@<TRIPOS>ATOM
      1 O1          -2.9560     4.4640    -1.9090 o          1 22       -0.544500
      2 C1          -2.2110     4.2450    -0.9750 c          1 22        0.716350
      3 C2          -0.7930     3.9290    -1.1350 ca         1 22       -0.126517
      4 C3          -0.0620     3.6700    -2.2830 ca         1 22       -0.011667
      5 C4           1.2640     3.3400    -2.0570 ca         1 22       -0.126517
      6 C5           2.3070     2.9370    -2.9970 c          1 22        0.716350
      7 O2           2.1610     2.9480    -4.2030 o          1 22       -0.544500
      8 N1           3.4060     2.5960    -2.2500 n          1 22       -0.518900
      9 C6           3.2180     2.8920    -0.9290 c          1 22        0.716350
     10 O3           4.0000     2.8470    -0.0020 o          1 22       -0.544500
     11 C7           1.8250     3.3040    -0.7800 ca         1 22       -0.126517
     12 C8           1.0990     3.5780     0.3670 ca         1 22       -0.011667
     13 C9          -0.2340     3.8780     0.1430 ca         1 22       -0.126517
     14 C10         -1.3080     4.1380     1.0970 c          1 22        0.716350
     15 O4          -1.1360     4.2050     2.2970 o          1 22       -0.544500
     16 N2          -2.4610     4.2620     0.3730 n          1 22       -0.518900
     17 C11         -3.7860     4.5380     0.9380 c3         1 22        0.105033
     18 C12         -3.9190     6.0240     1.3260 c3         1 22       -0.094400
     19 C13         -5.0250     6.2890     2.3520 c3         1 22       -0.079400
     20 C14         -6.1470     5.2620     2.2660 c3         1 22       -0.079400
     21 C15         -5.6470     3.8380     2.5210 c3         1 22       -0.094400
     22 C16         -4.1680     3.6270     2.1390 c3         1 22        0.105033
     23 N3          -3.8830     2.2030     1.9350 n          1 22       -0.518900
     24 C17         -3.4290     1.3810     2.9340 c          1 22        0.716350
     25 O5          -3.1930     1.6300     4.0990 o          1 22       -0.544500
     26 C18         -3.2850     0.0470     2.3520 ca         1 22       -0.126517
     27 C19         -2.7580    -1.1130     2.8950 ca         1 22       -0.011667
     28 C20         -2.7180    -2.1900     2.0240 ca         1 22       -0.126517
     29 C21         -2.1790    -3.5360     2.2120 c          1 22        0.716350
     30 O6          -1.7460    -3.9440     3.2700 o          1 22       -0.544500
     31 N4          -2.2730    -4.1740     1.0040 n          1 22       -0.518900
     32 C22         -2.9410    -3.4090     0.0850 c          1 22        0.716350
     33 O7          -3.2960    -3.6780    -1.0450 o          1 22       -0.544500
     34 C23         -3.1900    -2.1150     0.7130 ca         1 22       -0.126517
     35 C24         -3.7380    -0.9620     0.1760 ca         1 22       -0.011667
     36 C25         -3.7580     0.1180     1.0410 ca         1 22       -0.126517
     37 C26         -4.1940     1.4920     0.8090 c          1 22        0.716350
     38 O8          -4.7230     1.8600    -0.2200 o          1 22       -0.544500
     39 C27         -1.8330    -5.5470     0.7320 c3         1 22        0.105033
     40 C28         -2.7740    -6.5700     1.3870 c3         1 22       -0.094400
     41 C29         -2.3580    -8.0010     1.0490 c3         1 22       -0.079400
     42 C30         -0.9020    -8.2740     1.4150 c3         1 22       -0.079400
     43 C31          0.0470    -7.2510     0.7930 c3         1 22       -0.094400
     44 C32         -0.3610    -5.8160     1.1610 c3         1 22        0.105033
     45 N5           0.5900    -4.8410     0.6160 n          1 22       -0.518900
     46 C33          0.6870    -4.4800    -0.7000 c          1 22        0.716350
     47 O9           0.0530    -4.8690    -1.6600 o          1 22       -0.544500
     48 C34          1.7500    -3.4810    -0.7890 ca         1 22       -0.126517
     49 C35          2.1580    -2.7070    -1.8630 ca         1 22       -0.011667
     50 C36          3.1600    -1.7970    -1.5670 ca         1 22       -0.126517
     51 C37          3.7750    -0.7700    -2.4060 c          1 22        0.716350
     52 O10          3.5290    -0.6340    -3.5880 o          1 22       -0.544500
     53 N6           4.6150    -0.0510    -1.6000 n          1 22       -0.518900
     54 C38          4.7120    -0.6110    -0.3520 c          1 22        0.716350
     55 O11          5.4520    -0.3360     0.5700 o          1 22       -0.544500
     56 C39          3.7300    -1.6900    -0.2980 ca         1 22       -0.126517
     57 C40          3.3360    -2.4760     0.7720 ca         1 22       -0.011667
     58 C41          2.3150    -3.3650     0.4820 ca         1 22       -0.126517
     59 C42          1.5940    -4.2810     1.3620 c          1 22        0.716350
     60 O12          1.8910    -4.4600     2.5260 o          1 22       -0.544500
     61 C43          5.4380     1.0860    -2.0230 c3         1 22        0.105033
     62 C44          6.6800     0.6150    -2.7950 c3         1 22       -0.094400
     63 C45          7.5910     1.7920    -3.1410 c3         1 22       -0.079400
     64 C46          6.8480     2.8930    -3.8930 c3         1 22       -0.079400
     65 C47          5.5850     3.3420    -3.1600 c3         1 22       -0.094400
     66 C48          4.6650     2.1480    -2.8580 c3         1 22        0.105033
     67 H1          -0.5010     3.6910    -3.2740 ha         1 22        0.186000
     68 H2           1.5310     3.5310     1.3600 ha         1 22        0.186000
     69 H3          -4.5100     4.3560     0.1320 h1         1 22        0.105033
     70 H4          -2.9750     6.4140     1.7270 hc         1 22        0.058700
     71 H5          -4.1160     6.6050     0.4160 hc         1 22        0.058700
     72 H6          -4.5960     6.2660     3.3620 hc         1 22        0.049783
     73 H7          -5.4240     7.2990     2.2080 hc         1 22        0.049783
     74 H8          -6.6020     5.3130     1.2680 hc         1 22        0.049783
     75 H9          -6.9400     5.5060     2.9810 hc         1 22        0.049783
     76 H10         -6.2980     3.1400     1.9790 hc         1 22        0.058700
     77 H11         -5.7710     3.5910     3.5840 hc         1 22        0.058700
     78 H12         -3.5690     3.9380     3.0050 h1         1 22        0.105033
     79 H13         -2.3790    -1.1650     3.9100 ha         1 22        0.186000
     80 H14         -4.0930    -0.9030    -0.8470 ha         1 22        0.186000
     81 H15         -1.9130    -5.6930    -0.3520 h1         1 22        0.105033
     82 H16         -2.7790    -6.4400     2.4760 hc         1 22        0.058700
     83 H17         -3.8040    -6.4010     1.0490 hc         1 22        0.058700
     84 H18         -3.0090    -8.7070     1.5770 hc         1 22        0.049783
     85 H19         -2.5020    -8.1760    -0.0240 hc         1 22        0.049783
     86 H20         -0.7920    -8.2540     2.5070 hc         1 22        0.049783
     87 H21         -0.6230    -9.2820     1.0860 hc         1 22        0.049783
     88 H22          1.0700    -7.4500     1.1340 hc         1 22        0.058700
     89 H23          0.0530    -7.3750    -0.2970 hc         1 22        0.058700
     90 H24         -0.2960    -5.7380     2.2540 h1         1 22        0.105033
     91 H25          1.7050    -2.7820    -2.8460 ha         1 22        0.186000
     92 H26          3.7650    -2.3780     1.7620 ha         1 22        0.186000
     93 H27          5.8030     1.5630    -1.1040 h1         1 22        0.105033
     94 H28          7.2410    -0.1140    -2.1970 hc         1 22        0.058700
     95 H29          6.3800     0.0980    -3.7150 hc         1 22        0.058700
     96 H30          8.0130     2.2060    -2.2170 hc         1 22        0.049783
     97 H31          8.4350     1.4390    -3.7450 hc         1 22        0.049783
     98 H32          6.5760     2.5290    -4.8910 hc         1 22        0.049783
     99 H33          7.5130     3.7520    -4.0380 hc         1 22        0.049783
    100 H34          5.0550     4.0820    -3.7720 hc         1 22        0.058700
    101 H35          5.8600     3.8500    -2.2270 hc         1 22        0.058700
    102 H36          4.3950     1.7050    -3.8260 h1         1 22        0.105033
@<TRIPOS>BOND
     1     1     2 2   
     2     2     3 1   
     3     2    16 1   
     4     3     4 ar  
     5     3    13 ar  
     6     4     5 ar  
     7     4    67 1   
     8     5     6 1   
     9     5    11 ar  
    10     6     7 2   
    11     6     8 1   
    12     8     9 1   
    13     8    66 1   
    14     9    10 2   
    15     9    11 1   
    16    11    12 ar  
    17    12    13 ar  
    18    12    68 1   
    19    13    14 1   
    20    14    15 2   
    21    14    16 1   
    22    16    17 1   
    23    17    18 1   
    24    17    22 1   
    25    17    69 1   
    26    18    19 1   
    27    18    70 1   
    28    18    71 1   
    29    19    20 1   
    30    19    72 1   
    31    19    73 1   
    32    20    21 1   
    33    20    74 1   
    34    20    75 1   
    35    21    22 1   
    36    21    76 1   
    37    21    77 1   
    38    22    23 1   
    39    22    78 1   
    40    23    24 1   
    41    23    37 1   
    42    24    25 2   
    43    24    26 1   
    44    26    27 ar  
    45    26    36 ar  
    46    27    28 ar  
    47    27    79 1   
    48    28    29 1   
    49    28    34 ar  
    50    29    30 2   
    51    29    31 1   
    52    31    32 1   
    53    31    39 1   
    54    32    33 2   
    55    32    34 1   
    56    34    35 ar  
    57    35    36 ar  
    58    35    80 1   
    59    36    37 1   
    60    37    38 2   
    61    39    40 1   
    62    39    44 1   
    63    39    81 1   
    64    40    41 1   
    65    40    82 1   
    66    40    83 1   
    67    41    42 1   
    68    41    84 1   
    69    41    85 1   
    70    42    43 1   
    71    42    86 1   
    72    42    87 1   
    73    43    44 1   
    74    43    88 1   
    75    43    89 1   
    76    44    45 1   
    77    44    90 1   
    78    45    46 1   
    79    45    59 1   
    80    46    47 2   
    81    46    48 1   
    82    48    49 ar  
    83    48    58 ar  
    84    49    50 ar  
    85    49    91 1   
    86    50    51 1   
    87    50    56 ar  
    88    51    52 2   
    89    51    53 1   
    90    53    54 1   
    91    53    61 1   
    92    54    55 2   
    93    54    56 1   
    94    56    57 ar  
    95    57    58 ar  
    96    57    92 1   
    97    58    59 1   
    98    59    60 2   
    99    61    62 1   
   100    61    66 1   
   101    61    93 1   
   102    62    63 1   
   103    62    94 1   
   104    62    95 1   
   105    63    64 1   
   106    63    96 1   
   107    63    97 1   
   108    64    65 1   
   109    64    98 1   
   110    64    99 1   
   111    65    66 1   
   112    65   100 1   
   113    65   101 1   
   114    66   102 1   
@<TRIPOS>SUBSTRUCTURE
     1 22          1 TEMP              0 ****  ****    0 ROOT
