@<TRIPOS>MOLECULE
126
  123   129     1     0     0
SMALL
bcc


@<TRIPOS>ATOM
      1 H            2.3250    -0.8420     2.8480 hn         0 126       0.329833
      2 N            2.8950    -0.1640     3.2460 n          0 126      -0.547233
      3 C            2.3170     0.6650     4.0750 c          0 126       0.569433
      4 O            3.0060     1.5510     4.5390 o          0 126      -0.608100
      5 C1           0.9060     0.6230     4.4970 ca         0 126       0.356300
      6 N1          -0.0790     0.6420     3.6220 nb         0 126      -0.639667
      7 C2          -1.3490     0.6050     3.9950 ca         0 126       0.356300
      8 C3          -1.6900     0.5120     5.3460 ca         0 126      -0.179633
      9 H1          -2.7260     0.4650     5.6460 ha         0 126       0.168667
     10 C4          -0.6820     0.4810     6.2960 ca         0 126      -0.105667
     11 H2          -0.9180     0.4120     7.3480 ha         0 126       0.151667
     12 C5           0.6320     0.5410     5.8710 ca         0 126      -0.179633
     13 H3           1.4400     0.5230     6.5890 ha         0 126       0.168667
     14 C6          -2.4210     0.6900     2.9730 c          0 126       0.569433
     15 O1          -2.1460     0.8880     1.8060 o          0 126      -0.608100
     16 N2          -3.7130     0.5410     3.3620 n          0 126      -0.547233
     17 H4          -3.9410    -0.0090     4.1280 hn         0 126       0.329833
     18 C7          -4.7590     1.2340     2.5950 c3         0 126       0.123633
     19 H5          -5.7370     0.9770     3.0030 h1         0 126       0.070867
     20 H6          -4.6080     2.3110     2.6660 h1         0 126       0.070867
     21 C8          -4.6930     0.8150     1.1520 ca         0 126      -0.120967
     22 C9          -4.6230     1.7640     0.1510 ca         0 126      -0.025300
     23 C10         -4.5530     1.3760    -1.1730 ca         0 126      -0.120967
     24 C11         -4.5780     0.0330    -1.5030 ca         0 126      -0.025300
     25 C12         -4.6390    -0.9170    -0.5010 ca         0 126      -0.120967
     26 C13         -4.7020    -0.5310     0.8250 ca         0 126      -0.025300
     27 C14         -4.7780    -1.5710     1.9120 c3         0 126      -0.057767
     28 H7          -4.3490    -2.5060     1.5510 hc         0 126       0.058200
     29 H8          -4.2200    -1.2290     2.7840 hc         0 126       0.058200
     30 C15         -6.2400    -1.7970     2.3000 c3         0 126      -0.090100
     31 H9          -6.2910    -2.4960     3.1350 hc         0 126       0.039756
     32 H10         -6.6890    -0.8480     2.5930 hc         0 126       0.039756
     33 H11         -6.7830    -2.2090     1.4490 hc         0 126       0.039756
     34 C16         -4.6130    -2.3830    -0.8570 c3         0 126       0.123633
     35 H12         -5.1300    -2.9570    -0.0880 h1         0 126       0.070867
     36 H13         -5.1020    -2.5360    -1.8190 h1         0 126       0.070867
     37 N3          -3.2100    -2.8160    -0.9380 n          0 126      -0.547233
     38 H14         -2.4980    -2.2620    -0.5810 hn         0 126       0.329833
     39 C17         -2.9330    -4.0020    -1.5220 c          0 126       0.569433
     40 O2          -3.8360    -4.6820    -1.9670 o          0 126      -0.608100
     41 C18         -1.5380    -4.4760    -1.6210 ca         0 126       0.356300
     42 C19         -1.3020    -5.7800    -2.0670 ca         0 126      -0.179633
     43 H15         -2.1260    -6.4170    -2.3510 ha         0 126       0.168667
     44 C20         -0.0000    -6.2440    -2.1410 ca         0 126      -0.105667
     45 H16          0.2090    -7.2490    -2.4780 ha         0 126       0.151667
     46 C21          1.0280    -5.3940    -1.7740 ca         0 126      -0.179633
     47 H17          2.0530    -5.7310    -1.8090 ha         0 126       0.168667
     48 C22          0.7260    -4.0950    -1.3580 ca         0 126       0.356300
     49 N4          -0.5280    -3.6790    -1.3020 nb         0 126      -0.639667
     50 C23          1.8280    -3.1800    -0.9610 c          0 126       0.569433
     51 O3           1.6350    -1.9920    -0.7960 o          0 126      -0.608100
     52 N5           3.0640    -3.7290    -0.7890 n          0 126      -0.547233
     53 H18          3.1780    -4.5820    -0.3410 hn         0 126       0.329833
     54 C24          4.2190    -2.9820    -1.3070 c3         0 126       0.123633
     55 H19          5.1300    -3.5480    -1.1150 h1         0 126       0.070867
     56 H20          4.1030    -2.8380    -2.3810 h1         0 126       0.070867
     57 C25          4.3160    -1.6370    -0.6340 ca         0 126      -0.120967
     58 C26          4.2630    -1.5350     0.7400 ca         0 126      -0.025300
     59 C27          4.3710    -0.2990     1.3450 ca         0 126      -0.120967
     60 C28          4.5270     0.8400     0.5770 ca         0 126      -0.025300
     61 C29          4.5670     0.7380    -0.8020 ca         0 126      -0.120967
     62 C30          4.4590    -0.4990    -1.4090 ca         0 126      -0.025300
     63 C31          4.4970    -0.6080    -2.9110 c3         0 126      -0.057767
     64 H21          3.8240    -1.4020    -3.2350 hc         0 126       0.058200
     65 H22          4.1830     0.3380    -3.3530 hc         0 126       0.058200
     66 C32          5.9230    -0.9330    -3.3620 c3         0 126      -0.090100
     67 H23          5.9510    -1.0120    -4.4490 hc         0 126       0.039756
     68 H24          6.5960    -0.1400    -3.0380 hc         0 126       0.039756
     69 H25          6.2370    -1.8790    -2.9210 hc         0 126       0.039756
     70 C33          4.7180     1.9740    -1.6530 c3         0 126       0.123633
     71 H26          5.0380     2.8080    -1.0290 h1         0 126       0.070867
     72 H27          5.4640     1.7930    -2.4270 h1         0 126       0.070867
     73 N6           3.4380     2.2970    -2.2780 n          0 126      -0.547233
     74 H28          3.0160     1.6170    -2.8240 hn         0 126       0.329833
     75 C34          2.8250     3.4460    -2.1460 c          0 126       0.569433
     76 O4           3.4700     4.3210    -1.6030 o          0 126      -0.608100
     77 C35          1.4720     3.8290    -2.5610 ca         0 126       0.356300
     78 C36          1.2900     5.0490    -3.2240 ca         0 126      -0.179633
     79 H29          2.1380     5.6830    -3.4370 ha         0 126       0.168667
     80 C37          0.0170     5.4380    -3.6040 ca         0 126      -0.105667
     81 H30         -0.1420     6.3620    -4.1410 ha         0 126       0.151667
     82 C38         -1.0470     4.6130    -3.2780 ca         0 126      -0.179633
     83 H31         -2.0550     4.8880    -3.5510 ha         0 126       0.168667
     84 C39         -0.8020     3.4230    -2.5910 ca         0 126       0.356300
     85 N7           0.4290     3.0530    -2.2920 nb         0 126      -0.639667
     86 C40         -1.9530     2.6130    -2.1170 c          0 126       0.569433
     87 O5          -1.7780     1.4650    -1.7590 o          0 126      -0.608100
     88 N8          -3.1780     3.1420    -2.0830 n          0 126      -0.547233
     89 H32         -3.2480     4.0960    -1.9230 hn         0 126       0.329833
     90 C41         -4.4130     2.4060    -2.2620 c3         0 126       0.123633
     91 H33         -4.4010     1.9040    -3.2300 h1         0 126       0.070867
     92 H34         -5.2560     3.0960    -2.2220 h1         0 126       0.070867
     93 C42          4.6540     2.1880     1.2400 c3         0 126      -0.057767
     94 H35          4.2470     2.9560     0.5820 hc         0 126       0.058200
     95 H36          4.1010     2.1840     2.1790 hc         0 126       0.058200
     96 C43          6.1290     2.4830     1.5180 c3         0 126      -0.090100
     97 H37          6.2200     3.4580     1.9970 hc         0 126       0.039756
     98 H38          6.5360     1.7150     2.1750 hc         0 126       0.039756
     99 H39          6.6820     2.4870     0.5780 hc         0 126       0.039756
    100 C44          4.2940    -0.1910     2.8560 c3         0 126       0.123633
    101 H40          4.7800     0.7290     3.1820 h1         0 126       0.070867
    102 H41          4.7900    -1.0500     3.3090 h1         0 126       0.070867
    103 C45          4.0880    -2.7730     1.5810 c3         0 126      -0.057767
    104 H42          3.6490    -2.5010     2.5410 hc         0 126       0.058200
    105 H43          3.4300    -3.4720     1.0660 hc         0 126       0.058200
    106 C46          5.4500    -3.4300     1.8110 c3         0 126      -0.090100
    107 H44          5.3240    -4.3250     2.4200 hc         0 126       0.039756
    108 H45          5.8900    -3.7020     0.8520 hc         0 126       0.039756
    109 H46          6.1090    -2.7310     2.3270 hc         0 126       0.039756
    110 C47         -4.5380    -0.3920    -2.9480 c3         0 126      -0.057767
    111 H47         -5.0740    -1.3340    -3.0640 hc         0 126       0.058200
    112 H48         -5.0100     0.3730    -3.5650 hc         0 126       0.058200
    113 C48         -3.0840    -0.5750    -3.3860 c3         0 126      -0.090100
    114 H49         -3.0550    -0.8820    -4.4320 hc         0 126       0.039756
    115 H50         -2.5480     0.3680    -3.2700 hc         0 126       0.039756
    116 H51         -2.6120    -1.3390    -2.7700 hc         0 126       0.039756
    117 C49         -4.6230     3.2290     0.5050 c3         0 126      -0.057767
    118 H52         -5.0840     3.7970    -0.3030 hc         0 126       0.058200
    119 H53         -5.1890     3.3810     1.4240 hc         0 126       0.058200
    120 C50         -3.1830     3.7050     0.7070 c3         0 126      -0.090100
    121 H54         -3.1830     4.7640     0.9620 hc         0 126       0.039756
    122 H55         -2.7230     3.1360     1.5140 hc         0 126       0.039756
    123 H56         -2.6180     3.5530    -0.2130 hc         0 126       0.039756
@<TRIPOS>BOND
     1     1     2 1   
     2     2     3 1   
     3     2   100 1   
     4     3     4 2   
     5     3     5 1   
     6     5     6 ar  
     7     5    12 ar  
     8     6     7 ar  
     9     7     8 ar  
    10     7    14 1   
    11     8     9 1   
    12     8    10 ar  
    13    10    11 1   
    14    10    12 ar  
    15    12    13 1   
    16    14    15 2   
    17    14    16 1   
    18    16    17 1   
    19    16    18 1   
    20    18    19 1   
    21    18    20 1   
    22    18    21 1   
    23    21    22 ar  
    24    21    26 ar  
    25    22    23 ar  
    26    22   117 1   
    27    23    24 ar  
    28    23    90 1   
    29    24    25 ar  
    30    24   110 1   
    31    25    26 ar  
    32    25    34 1   
    33    26    27 1   
    34    27    28 1   
    35    27    29 1   
    36    27    30 1   
    37    30    31 1   
    38    30    32 1   
    39    30    33 1   
    40    34    35 1   
    41    34    36 1   
    42    34    37 1   
    43    37    38 1   
    44    37    39 1   
    45    39    40 2   
    46    39    41 1   
    47    41    42 ar  
    48    41    49 ar  
    49    42    43 1   
    50    42    44 ar  
    51    44    45 1   
    52    44    46 ar  
    53    46    47 1   
    54    46    48 ar  
    55    48    49 ar  
    56    48    50 1   
    57    50    51 2   
    58    50    52 1   
    59    52    53 1   
    60    52    54 1   
    61    54    55 1   
    62    54    56 1   
    63    54    57 1   
    64    57    58 ar  
    65    57    62 ar  
    66    58    59 ar  
    67    58   103 1   
    68    59    60 ar  
    69    59   100 1   
    70    60    61 ar  
    71    60    93 1   
    72    61    62 ar  
    73    61    70 1   
    74    62    63 1   
    75    63    64 1   
    76    63    65 1   
    77    63    66 1   
    78    66    67 1   
    79    66    68 1   
    80    66    69 1   
    81    70    71 1   
    82    70    72 1   
    83    70    73 1   
    84    73    74 1   
    85    73    75 1   
    86    75    76 2   
    87    75    77 1   
    88    77    78 ar  
    89    77    85 ar  
    90    78    79 1   
    91    78    80 ar  
    92    80    81 1   
    93    80    82 ar  
    94    82    83 1   
    95    82    84 ar  
    96    84    85 ar  
    97    84    86 1   
    98    86    87 2   
    99    86    88 1   
   100    88    89 1   
   101    88    90 1   
   102    90    91 1   
   103    90    92 1   
   104    93    94 1   
   105    93    95 1   
   106    93    96 1   
   107    96    97 1   
   108    96    98 1   
   109    96    99 1   
   110   100   101 1   
   111   100   102 1   
   112   103   104 1   
   113   103   105 1   
   114   103   106 1   
   115   106   107 1   
   116   106   108 1   
   117   106   109 1   
   118   110   111 1   
   119   110   112 1   
   120   110   113 1   
   121   113   114 1   
   122   113   115 1   
   123   113   116 1   
   124   117   118 1   
   125   117   119 1   
   126   117   120 1   
   127   120   121 1   
   128   120   122 1   
   129   120   123 1   
@<TRIPOS>SUBSTRUCTURE
     1 126         1 TEMP              0 ****  ****    0 ROOT
