@<TRIPOS>MOLECULE
178
   54    60     1     0     0
SMALL
bcc


@<TRIPOS>ATOM
      1 C            1.0640    -5.4820    -0.0640 ca         0 178       0.396200
      2 C1          -0.2560    -5.0720    -0.0470 ca         0 178      -0.223300
      3 C2          -0.5430    -3.7050    -0.0240 cp         0 178      -0.009000
      4 C3           0.5240    -2.8040    -0.0190 ca         0 178      -0.227300
      5 C4           1.8240    -3.3020    -0.0340 cp         0 178       0.355300
      6 N            2.0490    -4.6070    -0.0570 nb         0 178      -0.619000
      7 C5           2.9580    -2.3430    -0.0210 cp         0 178       0.355300
      8 N1           4.2080    -2.7820    -0.0290 nb         0 178      -0.619000
      9 C6           5.2340    -1.9550    -0.0120 ca         0 178       0.396200
     10 C7           5.0480    -0.5850     0.0150 ca         0 178      -0.223300
     11 C8           3.7480    -0.0760     0.0190 cp         0 178      -0.009000
     12 C9           2.6820    -0.9790    -0.0000 ca         0 178      -0.227300
     13 C10          3.4820     1.3840     0.0490 cp         0 178      -0.009000
     14 C11          2.1700     1.8570    -0.0170 ca         0 178      -0.227300
     15 C12          1.9480     3.2300     0.0080 cp         0 178       0.355300
     16 N2           2.9620     4.0790     0.0960 nb         0 178      -0.619000
     17 C13          4.2120     3.6630     0.1670 ca         0 178       0.396200
     18 C14          4.5180     2.3150     0.1460 ca         0 178      -0.223300
     19 C15          0.5520     3.7310    -0.0550 cp         0 178       0.355300
     20 N3           0.3070     5.0310    -0.1350 nb         0 178      -0.619000
     21 C16         -0.9220     5.5040    -0.1860 ca         0 178       0.396200
     22 C17         -2.0150     4.6580    -0.1520 ca         0 178      -0.223300
     23 C18         -1.8060     3.2800    -0.0650 cp         0 178      -0.009000
     24 C19         -0.4920     2.8110    -0.0220 ca         0 178      -0.227300
     25 C20         -2.9390     2.3230    -0.0050 cp         0 178      -0.009000
     26 C21         -2.6930     0.9490    -0.0090 ca         0 178      -0.227300
     27 C22         -3.7740     0.0730     0.0460 cp         0 178       0.355300
     28 N4          -5.0150     0.5310     0.1110 nb         0 178      -0.619000
     29 C23         -5.2790     1.8230     0.1220 ca         0 178       0.396200
     30 C24         -4.2640     2.7600     0.0640 ca         0 178      -0.223300
     31 C25         -3.5100    -1.3890     0.0310 cp         0 178       0.355300
     32 N5          -4.5140    -2.2520     0.0390 nb         0 178      -0.619000
     33 C26         -4.3100    -3.5550     0.0240 ca         0 178       0.396200
     34 C27         -3.0310    -4.0770     0.0020 ca         0 178      -0.223300
     35 C28         -1.9400    -3.2040    -0.0050 cp         0 178      -0.009000
     36 C29         -2.1900    -1.8310     0.0100 ca         0 178      -0.227300
     37 H            1.2910    -6.5380    -0.0770 h4         0 178       0.030100
     38 H1          -1.0550    -5.7990    -0.0520 ha         0 178       0.151000
     39 H2           0.3430    -1.7400    -0.0030 ha         0 178       0.147000
     40 H3           6.2380    -2.3540    -0.0180 h4         0 178       0.030100
     41 H4           5.8970     0.0820     0.0330 ha         0 178       0.151000
     42 H5           1.6620    -0.6240     0.0000 ha         0 178       0.147000
     43 H6           1.3410     1.1680    -0.0850 ha         0 178       0.147000
     44 H7           5.0090     4.3880     0.2420 h4         0 178       0.030100
     45 H8           5.5460     1.9870     0.2040 ha         0 178       0.151000
     46 H9          -1.0780     6.5700    -0.2560 h4         0 178       0.030100
     47 H10         -3.0180     5.0580    -0.1910 ha         0 178       0.151000
     48 H11         -0.2890     1.7520     0.0360 ha         0 178       0.147000
     49 H12         -1.6820     0.5720    -0.0550 ha         0 178       0.147000
     50 H13         -6.3050     2.1550     0.1770 h4         0 178       0.030100
     51 H14         -4.4920     3.8150     0.0720 ha         0 178       0.151000
     52 H15         -5.1570    -4.2250     0.0290 h4         0 178       0.030100
     53 H16         -2.8760    -5.1460    -0.0100 ha         0 178       0.151000
     54 H17         -1.3740    -1.1240     0.0040 ha         0 178       0.147000
@<TRIPOS>BOND
     1     1     2 ar  
     2     1     6 ar  
     3     1    37 1   
     4     2     3 ar  
     5     2    38 1   
     6     3     4 ar  
     7     3    35 1   
     8     4     5 ar  
     9     4    39 1   
    10     5     6 ar  
    11     5     7 1   
    12     7     8 ar  
    13     7    12 ar  
    14     8     9 ar  
    15     9    10 ar  
    16     9    40 1   
    17    10    11 ar  
    18    10    41 1   
    19    11    12 ar  
    20    11    13 1   
    21    12    42 1   
    22    13    14 ar  
    23    13    18 ar  
    24    14    15 ar  
    25    14    43 1   
    26    15    16 ar  
    27    15    19 1   
    28    16    17 ar  
    29    17    18 ar  
    30    17    44 1   
    31    18    45 1   
    32    19    20 ar  
    33    19    24 ar  
    34    20    21 ar  
    35    21    22 ar  
    36    21    46 1   
    37    22    23 ar  
    38    22    47 1   
    39    23    24 ar  
    40    23    25 1   
    41    24    48 1   
    42    25    26 ar  
    43    25    30 ar  
    44    26    27 ar  
    45    26    49 1   
    46    27    28 ar  
    47    27    31 1   
    48    28    29 ar  
    49    29    30 ar  
    50    29    50 1   
    51    30    51 1   
    52    31    32 ar  
    53    31    36 ar  
    54    32    33 ar  
    55    33    34 ar  
    56    33    52 1   
    57    34    35 ar  
    58    34    53 1   
    59    35    36 ar  
    60    36    54 1   
@<TRIPOS>SUBSTRUCTURE
     1 178         1 TEMP              0 ****  ****    0 ROOT
