@<TRIPOS>MOLECULE
81
   72    78     1     0     0
SMALL
bcc


@<TRIPOS>ATOM
      1 H           -1.5580     3.7240    -1.7800 h2         0 81        0.064450
      2 C           -1.5390     3.3600    -0.7530 c3         0 81        0.377000
      3 N           -0.9280     4.3630     0.1450 nh         0 81       -0.634150
      4 C1           0.2460     5.1920    -0.1160 c3         0 81        0.423500
      5 N1           1.4980     4.4620    -0.0470 nh         0 81       -0.634150
      6 C2           2.6900     4.8930     0.5660 c2         0 81       -0.044250
      7 C3           3.6940     4.0910     0.2670 c2         0 81       -0.074250
      8 N2           3.2720     3.0540    -0.5750 nh         0 81       -0.601150
      9 C4           4.1000     2.0850    -1.2960 c3         0 81        0.116500
     10 C5           4.4190     0.8810    -0.4580 ca         0 81        0.396350
     11 N3           4.2320    -0.3360    -0.9350 nb         0 81       -0.660000
     12 C6           4.5120    -1.4110    -0.2240 ca         0 81        0.396350
     13 C7           4.2740    -2.7890    -0.7810 c3         0 81        0.116500
     14 N4           3.1110    -3.4340    -0.1970 nh         0 81       -0.601150
     15 C8           3.0640    -4.2970     0.9120 c2         0 81       -0.074250
     16 C9           1.8920    -4.8940     1.0010 c2         0 81       -0.044250
     17 N5           1.0420    -4.4830    -0.0410 nh         0 81       -0.634150
     18 C10         -0.2330    -5.0920    -0.4170 c3         0 81        0.423500
     19 N6          -1.3770    -4.2630    -0.1070 nh         0 81       -0.634150
     20 C11         -2.3000    -4.4270     0.9460 c2         0 81       -0.044250
     21 C12         -3.3700    -3.6730     0.7590 c2         0 81       -0.074250
     22 N7          -3.2600    -2.9410    -0.4300 nh         0 81       -0.601150
     23 C13         -4.3040    -2.2030    -1.1450 c3         0 81        0.116500
     24 C14         -4.6620    -0.9200    -0.4590 ca         0 81        0.396350
     25 N8          -4.2670     0.2380    -0.9510 nb         0 81       -0.660000
     26 C15         -4.5630     1.3810    -0.3640 ca         0 81        0.396350
     27 C16         -4.0630     2.6800    -0.9340 c3         0 81        0.116500
     28 N9          -2.9200     3.2210    -0.2190 nh         0 81       -0.601150
     29 C17         -2.8720     3.7470     1.0840 c2         0 81       -0.074250
     30 C18         -1.7450     4.4000     1.2900 c2         0 81       -0.044250
     31 C19         -5.3470     1.4050     0.7780 ca         0 81       -0.228800
     32 C20         -5.7840     0.2100     1.3220 ca         0 81       -0.096500
     33 C21         -5.4270    -0.9730     0.6940 ca         0 81       -0.228800
     34 C22         -1.8450    -3.0730    -0.8580 c3         0 81        0.377000
     35 H1          -1.2730    -2.1890    -0.5760 h2         0 81        0.064450
     36 C23          1.7080    -3.3290    -0.6770 c3         0 81        0.377000
     37 H2           1.2560    -2.3940    -0.3460 h2         0 81        0.064450
     38 C24          5.0440    -1.2950     1.0530 ca         0 81       -0.228800
     39 C25          5.2480    -0.0350     1.5860 ca         0 81       -0.096500
     40 C26          4.9210     1.0700     0.8150 ca         0 81       -0.228800
     41 C27          1.7960     3.1320    -0.6160 c3         0 81        0.377000
     42 H3           1.3540     2.3460    -0.0040 h2         0 81        0.064450
     43 H4          -1.0040     2.4120    -0.6910 h2         0 81        0.064450
     44 H5           0.1500     5.6280    -1.1110 h2         0 81        0.057700
     45 H6           0.2720     5.9990     0.6150 h2         0 81        0.057700
     46 H7           2.7710     5.7660     1.1980 h4         0 81        0.166250
     47 H8           4.7060     4.2180     0.6230 h4         0 81        0.168250
     48 H9           3.5680     1.7630    -2.1920 h1         0 81        0.059700
     49 H10          5.0310     2.5670    -1.5940 h1         0 81        0.059700
     50 H11          4.1300    -2.7120    -1.8590 h1         0 81        0.059700
     51 H12          5.1520    -3.4040    -0.5880 h1         0 81        0.059700
     52 H13          3.8810    -4.4520     1.6010 h4         0 81        0.168250
     53 H14          1.6210    -5.6030     1.7700 h4         0 81        0.166250
     54 H15         -0.2250    -5.2900    -1.4880 h2         0 81        0.057700
     55 H16         -0.3360    -6.0410     0.1100 h2         0 81        0.057700
     56 H17         -2.1530    -5.0800     1.7930 h4         0 81        0.166250
     57 H18         -4.2150    -3.6280     1.4310 h4         0 81        0.168250
     58 H19         -3.9530    -1.9800    -2.1520 h1         0 81        0.059700
     59 H20         -5.1950    -2.8280    -1.2130 h1         0 81        0.059700
     60 H21         -3.7810     2.5190    -1.9740 h1         0 81        0.059700
     61 H22         -4.8720     3.4090    -0.9030 h1         0 81        0.059700
     62 H23         -3.6550     3.6310     1.8190 h4         0 81        0.168250
     63 H24         -1.4840     4.8950     2.2130 h4         0 81        0.166250
     64 H25         -5.6130     2.3450     1.2380 ha         0 81        0.149750
     65 H26         -6.3900     0.2000     2.2170 ha         0 81        0.139000
     66 H27         -5.7430    -1.9230     1.0980 ha         0 81        0.149750
     67 H28         -1.7820    -3.2460    -1.9330 h2         0 81        0.064450
     68 H29          1.6660    -3.4120    -1.7630 h2         0 81        0.064450
     69 H30          5.2940    -2.1780     1.6230 ha         0 81        0.149750
     70 H31          5.6530     0.0840     2.5800 ha         0 81        0.139000
     71 H32          5.0580     2.0680     1.2060 ha         0 81        0.149750
     72 H33          1.4380     3.0660    -1.6440 h2         0 81        0.064450
@<TRIPOS>BOND
     1     1     2 1   
     2     2     3 1   
     3     2    28 1   
     4     2    43 1   
     5     3     4 1   
     6     3    30 1   
     7     4     5 1   
     8     4    44 1   
     9     4    45 1   
    10     5     6 1   
    11     5    41 1   
    12     6     7 2   
    13     6    46 1   
    14     7     8 1   
    15     7    47 1   
    16     8     9 1   
    17     8    41 1   
    18     9    10 1   
    19     9    48 1   
    20     9    49 1   
    21    10    11 ar  
    22    10    40 ar  
    23    11    12 ar  
    24    12    13 1   
    25    12    38 ar  
    26    13    14 1   
    27    13    50 1   
    28    13    51 1   
    29    14    15 1   
    30    14    36 1   
    31    15    16 2   
    32    15    52 1   
    33    16    17 1   
    34    16    53 1   
    35    17    18 1   
    36    17    36 1   
    37    18    19 1   
    38    18    54 1   
    39    18    55 1   
    40    19    20 1   
    41    19    34 1   
    42    20    21 2   
    43    20    56 1   
    44    21    22 1   
    45    21    57 1   
    46    22    23 1   
    47    22    34 1   
    48    23    24 1   
    49    23    58 1   
    50    23    59 1   
    51    24    25 ar  
    52    24    33 ar  
    53    25    26 ar  
    54    26    27 1   
    55    26    31 ar  
    56    27    28 1   
    57    27    60 1   
    58    27    61 1   
    59    28    29 1   
    60    29    30 2   
    61    29    62 1   
    62    30    63 1   
    63    31    32 ar  
    64    31    64 1   
    65    32    33 ar  
    66    32    65 1   
    67    33    66 1   
    68    34    35 1   
    69    34    67 1   
    70    36    37 1   
    71    36    68 1   
    72    38    39 ar  
    73    38    69 1   
    74    39    40 ar  
    75    39    70 1   
    76    40    71 1   
    77    41    42 1   
    78    41    72 1   
@<TRIPOS>SUBSTRUCTURE
     1 81          1 TEMP              0 ****  ****    0 ROOT
