@<TRIPOS>MOLECULE
63
  100   108     1     0     0
SMALL
bcc


@<TRIPOS>ATOM
      1 C            1.6800     4.6610    -2.7570 c3         0 63       -0.085725
      2 C1           1.9070     5.2850    -1.3790 c3         0 63        0.092100
      3 C2           2.4320     6.7100    -1.5700 c3         0 63       -0.085725
      4 C3           0.5940     5.3520    -0.6620 cc         0 63       -0.119350
      5 C4           0.1770     6.3860     0.1080 cd         0 63       -0.187500
      6 C5          -1.1380     6.1110     0.5090 cd         0 63       -0.175875
      7 C6          -1.4840     4.9060    -0.0160 cc         0 63       -0.057550
      8 N           -0.3890     4.4080    -0.6830 na         0 63       -0.160225
      9 C7          -2.8140     4.2800     0.0370 cc         0 63       -0.057550
     10 C8          -3.9520     4.7410    -0.5430 cd         0 63       -0.175875
     11 C9          -4.9910     3.8800    -0.1780 cd         0 63       -0.187500
     12 C10         -4.4760     2.9290     0.6340 cc         0 63       -0.119350
     13 N1          -3.1280     3.1190     0.7130 na         0 63       -0.160225
     14 C11         -5.2770     1.9070     1.3770 c3         0 63        0.092100
     15 C12         -4.6430     1.6940     2.7530 c3         0 63       -0.085725
     16 C13         -6.6960     2.4450     1.5720 c3         0 63       -0.085725
     17 C14         -5.3620     0.5820     0.6780 cc         0 63       -0.119350
     18 C15         -6.4190     0.1600    -0.0620 cd         0 63       -0.187500
     19 C16         -6.1540    -1.1590    -0.4600 cd         0 63       -0.175875
     20 C17         -4.9350    -1.5000     0.0340 cc         0 63       -0.057550
     21 N2          -4.4230    -0.4040     0.6860 na         0 63       -0.160225
     22 C18         -4.3030    -2.8240    -0.0390 cc         0 63       -0.057550
     23 C19         -4.7640    -3.9780     0.5150 cd         0 63       -0.175875
     24 C20         -3.8890    -5.0050     0.1440 cd         0 63       -0.187500
     25 C21         -2.9320    -4.4670    -0.6490 cc         0 63       -0.119350
     26 N3          -3.1320    -3.1210    -0.7060 na         0 63       -0.160225
     27 C22         -1.8970    -5.2520    -1.3920 c3         0 63        0.092100
     28 C23         -2.4280    -6.6700    -1.6170 c3         0 63       -0.085725
     29 C24         -1.6700    -4.5950    -2.7550 c3         0 63       -0.085725
     30 C25         -0.5820    -5.3420    -0.6820 cc         0 63       -0.119350
     31 C26         -0.1810    -6.3840     0.0920 cd         0 63       -0.187500
     32 C27          1.1360    -6.1240     0.5010 cd         0 63       -0.175875
     33 C28          1.4990    -4.9270    -0.0240 cc         0 63       -0.057550
     34 N4           0.4220    -4.4210    -0.7110 na         0 63       -0.160225
     35 C29          2.8280    -4.3030     0.0500 cc         0 63       -0.057550
     36 C30          3.9830    -4.7930    -0.4790 cd         0 63       -0.175875
     37 C31          5.0160    -3.9190    -0.1160 cd         0 63       -0.187500
     38 C32          4.4800    -2.9380     0.6460 cc         0 63       -0.119350
     39 N5           3.1310    -3.1180     0.6870 na         0 63       -0.160225
     40 C33          5.2720    -1.9040     1.3810 c3         0 63        0.092100
     41 C34          4.6330    -1.6810     2.7530 c3         0 63       -0.085725
     42 C35          6.6940    -2.4310     1.5850 c3         0 63       -0.085725
     43 C36          5.3490    -0.5860     0.6680 cc         0 63       -0.119350
     44 C37          6.3770    -0.1780    -0.1160 cd         0 63       -0.187500
     45 C38          6.1050     1.1330    -0.5230 cd         0 63       -0.175875
     46 C39          4.9140     1.4920     0.0170 cc         0 63       -0.057550
     47 N6           4.4200     0.4110     0.7090 na         0 63       -0.160225
     48 C40          4.2870     2.8190    -0.0430 cc         0 63       -0.057550
     49 C41          4.7440     3.9600     0.5430 cd         0 63       -0.175875
     50 C42          3.8960     5.0040     0.1580 cd         0 63       -0.187500
     51 C43          2.9470     4.4850    -0.6570 cc         0 63       -0.119350
     52 N7           3.1340     3.1390    -0.7290 na         0 63       -0.160225
     53 H            2.6220     4.6390    -3.3060 hc         0 63        0.043533
     54 H1           1.3050     3.6450    -2.6380 hc         0 63        0.043533
     55 H2           0.9520     5.2550    -3.3090 hc         0 63        0.043533
     56 H3           1.7010     7.2950    -2.1270 hc         0 63        0.043533
     57 H4           2.6000     7.1690    -0.5950 hc         0 63        0.043533
     58 H5           3.3710     6.6800    -2.1230 hc         0 63        0.043533
     59 H6           0.7540     7.2620     0.3670 ha         0 63        0.155250
     60 H7          -1.7620     6.7420     1.1240 ha         0 63        0.154000
     61 H8          -0.3280     3.5340    -1.0980 hn         0 63        0.300700
     62 H9          -4.0390     5.6140    -1.1720 ha         0 63        0.154000
     63 H10         -6.0230     3.9610    -0.4880 ha         0 63        0.155250
     64 H11         -2.4980     2.5380     1.1670 hn         0 63        0.300700
     65 H12         -4.6420     2.6360     3.3020 hc         0 63        0.043533
     66 H13         -5.2170     0.9510     3.3070 hc         0 63        0.043533
     67 H14         -3.6180     1.3440     2.6300 hc         0 63        0.043533
     68 H15         -7.1500     2.6350     0.5990 hc         0 63        0.043533
     69 H16         -7.2930     1.7100     2.1130 hc         0 63        0.043533
     70 H17         -6.6580     3.3730     2.1430 hc         0 63        0.043533
     71 H18         -7.3020     0.7350    -0.3000 ha         0 63        0.155250
     72 H19         -6.8020    -1.7890    -1.0510 ha         0 63        0.154000
     73 H20         -3.5410    -0.3430     1.0850 hn         0 63        0.300700
     74 H21         -5.6460    -4.0830     1.1300 ha         0 63        0.154000
     75 H22         -3.9630    -6.0410     0.4370 ha         0 63        0.155250
     76 H23         -2.5500    -2.4800    -1.1430 hn         0 63        0.300700
     77 H24         -3.3480    -6.6250    -2.1990 hc         0 63        0.043533
     78 H25         -1.6840    -7.2550    -2.1580 hc         0 63        0.043533
     79 H26         -2.6300    -7.1390    -0.6540 hc         0 63        0.043533
     80 H27         -1.3250    -3.5710    -2.6110 hc         0 63        0.043533
     81 H28         -0.9180    -5.1570    -3.3080 hc         0 63        0.043533
     82 H29         -2.6040    -4.5890    -3.3150 hc         0 63        0.043533
     83 H30         -0.7690    -7.2530     0.3470 ha         0 63        0.155250
     84 H31          1.7490    -6.7610     1.1210 ha         0 63        0.154000
     85 H32          0.3830    -3.5540    -1.1450 hn         0 63        0.300700
     86 H33          4.0850    -5.6910    -1.0700 ha         0 63        0.154000
     87 H34          6.0550    -4.0120    -0.3940 ha         0 63        0.155250
     88 H35          2.4910    -2.5140     1.0960 hn         0 63        0.300700
     89 H36          4.6360    -2.6170     3.3120 hc         0 63        0.043533
     90 H37          5.2000    -0.9290     3.3010 hc         0 63        0.043533
     91 H38          3.6060    -1.3390     2.6240 hc         0 63        0.043533
     92 H39          7.1510    -2.6280     0.6160 hc         0 63        0.043533
     93 H40          7.2840    -1.6870     2.1200 hc         0 63        0.043533
     94 H41          6.6600    -3.3530     2.1650 hc         0 63        0.043533
     95 H42          7.2480    -0.7600    -0.3800 ha         0 63        0.155250
     96 H43          6.7310     1.7480    -1.1530 ha         0 63        0.154000
     97 H44          3.5580     0.3660     1.1510 hn         0 63        0.300700
     98 H45          5.6050     4.0430     1.1890 ha         0 63        0.154000
     99 H46          3.9810     6.0370     0.4590 ha         0 63        0.155250
    100 H47          2.5530     2.5100    -1.1840 hn         0 63        0.300700
@<TRIPOS>BOND
     1     1     2 1   
     2     1    53 1   
     3     1    54 1   
     4     1    55 1   
     5     2     3 1   
     6     2     4 1   
     7     2    51 1   
     8     3    56 1   
     9     3    57 1   
    10     3    58 1   
    11     4     5 2   
    12     4     8 1   
    13     5     6 1   
    14     5    59 1   
    15     6     7 2   
    16     6    60 1   
    17     7     8 1   
    18     7     9 1   
    19     8    61 1   
    20     9    10 2   
    21     9    13 1   
    22    10    11 1   
    23    10    62 1   
    24    11    12 2   
    25    11    63 1   
    26    12    13 1   
    27    12    14 1   
    28    13    64 1   
    29    14    15 1   
    30    14    16 1   
    31    14    17 1   
    32    15    65 1   
    33    15    66 1   
    34    15    67 1   
    35    16    68 1   
    36    16    69 1   
    37    16    70 1   
    38    17    18 2   
    39    17    21 1   
    40    18    19 1   
    41    18    71 1   
    42    19    20 2   
    43    19    72 1   
    44    20    21 1   
    45    20    22 1   
    46    21    73 1   
    47    22    23 2   
    48    22    26 1   
    49    23    24 1   
    50    23    74 1   
    51    24    25 2   
    52    24    75 1   
    53    25    26 1   
    54    25    27 1   
    55    26    76 1   
    56    27    28 1   
    57    27    29 1   
    58    27    30 1   
    59    28    77 1   
    60    28    78 1   
    61    28    79 1   
    62    29    80 1   
    63    29    81 1   
    64    29    82 1   
    65    30    31 2   
    66    30    34 1   
    67    31    32 1   
    68    31    83 1   
    69    32    33 2   
    70    32    84 1   
    71    33    34 1   
    72    33    35 1   
    73    34    85 1   
    74    35    36 2   
    75    35    39 1   
    76    36    37 1   
    77    36    86 1   
    78    37    38 2   
    79    37    87 1   
    80    38    39 1   
    81    38    40 1   
    82    39    88 1   
    83    40    41 1   
    84    40    42 1   
    85    40    43 1   
    86    41    89 1   
    87    41    90 1   
    88    41    91 1   
    89    42    92 1   
    90    42    93 1   
    91    42    94 1   
    92    43    44 2   
    93    43    47 1   
    94    44    45 1   
    95    44    95 1   
    96    45    46 2   
    97    45    96 1   
    98    46    47 1   
    99    46    48 1   
   100    47    97 1   
   101    48    49 2   
   102    48    52 1   
   103    49    50 1   
   104    49    98 1   
   105    50    51 2   
   106    50    99 1   
   107    51    52 1   
   108    52   100 1   
@<TRIPOS>SUBSTRUCTURE
     1 63          1 TEMP              0 ****  ****    0 ROOT
