@<TRIPOS>MOLECULE
165
   70    76     1     0     0
SMALL
bcc


@<TRIPOS>ATOM
      1 C           -4.7460     2.5630     0.6280 c3         0 165      -0.059500
      2 C1          -5.3030     1.2710     0.1080 ca         0 165       0.342100
      3 C2          -6.2350     1.3200    -0.9150 ca         0 165      -0.171800
      4 C3          -6.7780     0.1400    -1.3990 ca         0 165      -0.044000
      5 C4          -6.3710    -1.0520    -0.8230 ca         0 165      -0.171800
      6 C5          -5.4370    -1.0280     0.1960 ca         0 165       0.342100
      7 C6          -5.0140    -2.3350     0.8260 c3         0 165      -0.059500
      8 N           -3.5880    -2.5520     0.5930 na         0 165       0.058900
      9 C7          -2.7850    -2.7040     1.6280 cc         0 165      -0.002550
     10 C8          -1.4240    -2.8340     1.4520 cd         0 165      -0.132500
     11 C9          -0.8990    -2.8220     0.1580 cd         0 165       0.034500
     12 C10         -1.7970    -2.7620    -0.9170 cd         0 165      -0.132500
     13 C11         -3.1450    -2.6240    -0.6490 cc         0 165      -0.002550
     14 C12          0.5670    -2.7760    -0.0810 cc         0 165       0.034500
     15 C13          1.4800    -2.6390     0.9660 cc         0 165      -0.132500
     16 C14          2.8280    -2.5420     0.6850 cd         0 165      -0.002550
     17 N1           3.2550    -2.6010    -0.5630 na         0 165       0.058900
     18 C15          4.6800    -2.4880    -0.8390 c3         0 165      -0.059500
     19 C16          5.2890    -1.2540    -0.2300 ca         0 165       0.342100
     20 N2           4.9100    -0.0480    -0.5990 nb         0 165      -0.707000
     21 C17          5.4690     1.0400    -0.1050 ca         0 165       0.342100
     22 C18          5.0460     2.4080    -0.5630 c3         0 165      -0.059500
     23 N3           3.5970     2.5760    -0.3970 na         0 165       0.058900
     24 C19          3.1040     2.7870     0.8070 cc         0 165      -0.002550
     25 C20          1.7400     2.9020     0.9980 cd         0 165      -0.132500
     26 C21          0.8840     2.8010    -0.1070 cd         0 165       0.034500
     27 C22          1.4650     2.6550    -1.3720 cd         0 165      -0.132500
     28 C23          2.8350     2.5430    -1.4720 cc         0 165      -0.002550
     29 C24         -0.5860     2.7770     0.0700 cc         0 165       0.034500
     30 C25         -1.4490     2.6800    -1.0270 cc         0 165      -0.132500
     31 C26         -2.8130     2.6170    -0.8060 cd         0 165      -0.002550
     32 N4          -3.2970     2.6510     0.4160 na         0 165       0.058900
     33 C27         -2.5230     2.7720     1.4760 cd         0 165      -0.002550
     34 C28         -1.1530     2.8440     1.3470 cc         0 165      -0.132500
     35 C29          6.4700     0.9450     0.8470 ca         0 165      -0.171800
     36 C30          6.8800    -0.3070     1.2790 ca         0 165      -0.044000
     37 C31          6.2810    -1.4230     0.7220 ca         0 165      -0.171800
     38 C32          2.4280    -2.7670    -1.5760 cd         0 165      -0.002550
     39 C33          1.0680    -2.8660    -1.3850 cc         0 165      -0.132500
     40 N5          -4.9330     0.1140     0.6220 nb         0 165      -0.707000
     41 H           -5.2320     3.3930     0.1130 h1         0 165       0.134950
     42 H1          -4.9540     2.6370     1.6950 h1         0 165       0.134950
     43 H2          -6.5360     2.2690    -1.3330 ha         0 165       0.191000
     44 H3          -7.4990     0.1500    -2.2040 ha         0 165       0.209000
     45 H4          -6.7790    -1.9910    -1.1660 ha         0 165       0.191000
     46 H5          -5.2060    -2.3000     1.8980 h1         0 165       0.134950
     47 H6          -5.5830    -3.1520     0.3830 h1         0 165       0.134950
     48 H7          -3.1980    -2.7260     2.6260 h4         0 165       0.234250
     49 H8          -0.7710    -2.9440     2.3050 ha         0 165       0.204000
     50 H9          -1.4410    -2.8220    -1.9350 ha         0 165       0.204000
     51 H10         -3.8480    -2.5740    -1.4680 h4         0 165       0.234250
     52 H11          1.1330    -2.6080     1.9890 ha         0 165       0.204000
     53 H12          3.5380    -2.4180     1.4900 h4         0 165       0.234250
     54 H13          5.1870    -3.3660    -0.4400 h1         0 165       0.134950
     55 H14          4.8280    -2.4580    -1.9190 h1         0 165       0.134950
     56 H15          5.5670     3.1630     0.0260 h1         0 165       0.134950
     57 H16          5.3060     2.5320    -1.6150 h1         0 165       0.134950
     58 H17          3.7710     2.8720     1.6510 h4         0 165       0.234250
     59 H18          1.3390     3.0670     1.9870 ha         0 165       0.204000
     60 H19          0.8470     2.6320    -2.2580 ha         0 165       0.204000
     61 H20          3.2910     2.4260    -2.4440 h4         0 165       0.234250
     62 H21         -1.0560     2.6560    -2.0320 ha         0 165       0.204000
     63 H22         -3.4870     2.5380    -1.6460 h4         0 165       0.234250
     64 H23         -2.9690     2.8150     2.4580 h4         0 165       0.234250
     65 H24         -0.5270     2.9500     2.2210 ha         0 165       0.204000
     66 H25          6.9260     1.8380     1.2490 ha         0 165       0.191000
     67 H26          7.6480    -0.4080     2.0320 ha         0 165       0.209000
     68 H27          6.5840    -2.4140     1.0250 ha         0 165       0.191000
     69 H28          2.8260    -2.8270    -2.5780 h4         0 165       0.234250
     70 H29          0.4030    -3.0090    -2.2230 ha         0 165       0.204000
@<TRIPOS>BOND
     1     1     2 1   
     2     1    32 1   
     3     1    41 1   
     4     1    42 1   
     5     2     3 ar  
     6     2    40 ar  
     7     3     4 ar  
     8     3    43 1   
     9     4     5 ar  
    10     4    44 1   
    11     5     6 ar  
    12     5    45 1   
    13     6     7 1   
    14     6    40 ar  
    15     7     8 1   
    16     7    46 1   
    17     7    47 1   
    18     8     9 1   
    19     8    13 1   
    20     9    10 2   
    21     9    48 1   
    22    10    11 1   
    23    10    49 1   
    24    11    12 1   
    25    11    14 2   
    26    12    13 2   
    27    12    50 1   
    28    13    51 1   
    29    14    15 1   
    30    14    39 1   
    31    15    16 2   
    32    15    52 1   
    33    16    17 1   
    34    16    53 1   
    35    17    18 1   
    36    17    38 1   
    37    18    19 1   
    38    18    54 1   
    39    18    55 1   
    40    19    20 ar  
    41    19    37 ar  
    42    20    21 ar  
    43    21    22 1   
    44    21    35 ar  
    45    22    23 1   
    46    22    56 1   
    47    22    57 1   
    48    23    24 1   
    49    23    28 1   
    50    24    25 2   
    51    24    58 1   
    52    25    26 1   
    53    25    59 1   
    54    26    27 1   
    55    26    29 2   
    56    27    28 2   
    57    27    60 1   
    58    28    61 1   
    59    29    30 1   
    60    29    34 1   
    61    30    31 2   
    62    30    62 1   
    63    31    32 1   
    64    31    63 1   
    65    32    33 1   
    66    33    34 2   
    67    33    64 1   
    68    34    65 1   
    69    35    36 ar  
    70    35    66 1   
    71    36    37 ar  
    72    36    67 1   
    73    37    68 1   
    74    38    39 2   
    75    38    69 1   
    76    39    70 1   
@<TRIPOS>SUBSTRUCTURE
     1 165         1 TEMP              0 ****  ****    0 ROOT
