@<TRIPOS>MOLECULE
106
   74    78     1     0     0
SMALL
bcc


@<TRIPOS>ATOM
      1 O            9.7910     0.9340     0.1680 oh         0 106      -0.603100
      2 C            9.0620    -0.1990     0.1350 c          0 106       0.650700
      3 O1           9.6170    -1.2790     0.1520 o          0 106      -0.540000
      4 C1           7.5870    -0.1260     0.0790 ca         0 106      -0.144600
      5 C2           6.8310    -1.2970     0.0460 ca         0 106      -0.007500
      6 C3           5.4360    -1.2300    -0.0080 ca         0 106      -0.159600
      7 C4           4.8020     0.0090    -0.0190 ca         0 106      -0.058000
      8 C5           5.5570     1.1820     0.0100 ca         0 106      -0.159600
      9 C6           6.9490     1.1110     0.0660 ca         0 106      -0.007500
     10 C7           4.9000     2.5020    -0.0150 c          0 106       0.666700
     11 O2           5.5740     3.5140    -0.0030 o          0 106      -0.591100
     12 N            3.5420     2.5930    -0.0510 n          0 106      -0.558400
     13 C8           3.0070     3.9710    -0.0920 c3         0 106       0.130800
     14 C9           1.5030     3.9190    -0.0680 ca         0 106      -0.119300
     15 C10          0.8350     3.7690     1.1350 ca         0 106      -0.120000
     16 C11         -0.5470     3.7480     1.1590 ca         0 106      -0.120000
     17 C12         -1.2610     3.8730    -0.0170 ca         0 106      -0.119300
     18 C13         -2.7610     3.9050     0.0120 c3         0 106       0.130800
     19 N1          -3.3200     2.5410    -0.0030 n          0 106      -0.558400
     20 C14         -4.6710     2.4850     0.0140 c          0 106       0.666700
     21 O3          -5.2890     3.5310     0.0230 o          0 106      -0.591100
     22 C15         -5.4330     1.2280     0.0230 ca         0 106      -0.159600
     23 C16         -6.8320     1.2940     0.0250 ca         0 106      -0.007500
     24 C17         -7.5860     0.1240     0.0350 ca         0 106      -0.144600
     25 C18         -6.9470    -1.1130     0.0440 ca         0 106      -0.007500
     26 C19         -5.5530    -1.1820     0.0430 ca         0 106      -0.159600
     27 C20         -4.7990    -0.0120     0.0310 ca         0 106      -0.058000
     28 C21         -4.8990    -2.5040     0.0590 c          0 106       0.666700
     29 O4          -5.5780    -3.5120     0.0720 o          0 106      -0.591100
     30 N2          -3.5460    -2.6070     0.0600 n          0 106      -0.558400
     31 C22         -3.0020    -3.9780     0.0840 c3         0 106       0.130800
     32 C23         -1.5000    -3.9200     0.0040 ca         0 106      -0.119300
     33 C24         -0.7450    -3.9310     1.1610 ca         0 106      -0.120000
     34 C25          0.6350    -3.9050     1.0870 ca         0 106      -0.120000
     35 C26          1.2600    -3.8650    -0.1460 ca         0 106      -0.119300
     36 C27          2.7590    -3.8900    -0.2320 c3         0 106       0.130800
     37 N3           3.3140    -2.5250    -0.1050 n          0 106      -0.558400
     38 C28          4.6720    -2.4850    -0.0660 c          0 106       0.666700
     39 O5           5.2830    -3.5360    -0.0800 o          0 106      -0.591100
     40 C29          0.5030    -3.8230    -1.3030 ca         0 106      -0.120000
     41 C30         -0.8760    -3.8540    -1.2280 ca         0 106      -0.120000
     42 C31         -9.0620     0.1950     0.0360 c          0 106       0.650700
     43 O6          -9.7900    -0.9380     0.0460 oh         0 106      -0.603100
     44 O7          -9.6180     1.2750     0.0290 o          0 106      -0.540000
     45 C32         -0.5920     3.9920    -1.2220 ca         0 106      -0.120000
     46 C33          0.7890     4.0170    -1.2470 ca         0 106      -0.120000
     47 H           10.7560     0.8860     0.2040 ho         0 106       0.452000
     48 H1           7.3240    -2.2570     0.0620 ha         0 106       0.181000
     49 H2           3.7240     0.0630    -0.0500 ha         0 106       0.143000
     50 H3           7.5340     2.0190     0.0890 ha         0 106       0.181000
     51 H4           2.9680     1.8110    -0.0500 hn         0 106       0.311500
     52 H5           3.3660     4.5280     0.7730 h1         0 106       0.074200
     53 H6           3.3390     4.4630    -1.0070 h1         0 106       0.074200
     54 H7           1.3930     3.6680     2.0540 ha         0 106       0.143750
     55 H8          -1.0680     3.6330     2.0970 ha         0 106       0.143750
     56 H9          -3.0910     4.4170     0.9160 h1         0 106       0.074200
     57 H10         -3.1240     4.4500    -0.8600 h1         0 106       0.074200
     58 H11         -2.7630     1.7470    -0.0250 hn         0 106       0.311500
     59 H12         -7.3260     2.2550     0.0200 ha         0 106       0.181000
     60 H13         -7.5310    -2.0220     0.0520 ha         0 106       0.181000
     61 H14         -3.7200    -0.0660     0.0270 ha         0 106       0.143000
     62 H15         -2.9710    -1.8260     0.0450 hn         0 106       0.311500
     63 H16         -3.2980    -4.4710     1.0110 h1         0 106       0.074200
     64 H17         -3.3900    -4.5390    -0.7660 h1         0 106       0.074200
     65 H18         -1.2330    -3.9590     2.1240 ha         0 106       0.143750
     66 H19          1.2240    -3.9160     1.9920 ha         0 106       0.143750
     67 H20          3.1540    -4.5140     0.5700 h1         0 106       0.074200
     68 H21          3.0560    -4.3100    -1.1920 h1         0 106       0.074200
     69 H22          2.7590    -1.7310    -0.0540 hn         0 106       0.311500
     70 H23          0.9900    -3.7660    -2.2650 ha         0 106       0.143750
     71 H24         -1.4670    -3.8260    -2.1310 ha         0 106       0.143750
     72 H25        -10.7560    -0.8920     0.0460 ho         0 106       0.452000
     73 H26         -1.1500     4.0630    -2.1440 ha         0 106       0.143750
     74 H27          1.3110     4.1150    -2.1870 ha         0 106       0.143750
@<TRIPOS>BOND
     1     1     2 1   
     2     1    47 1   
     3     2     3 2   
     4     2     4 1   
     5     4     5 ar  
     6     4     9 ar  
     7     5     6 ar  
     8     5    48 1   
     9     6     7 ar  
    10     6    38 1   
    11     7     8 ar  
    12     7    49 1   
    13     8     9 ar  
    14     8    10 1   
    15     9    50 1   
    16    10    11 2   
    17    10    12 1   
    18    12    13 1   
    19    12    51 1   
    20    13    14 1   
    21    13    52 1   
    22    13    53 1   
    23    14    15 ar  
    24    14    46 ar  
    25    15    16 ar  
    26    15    54 1   
    27    16    17 ar  
    28    16    55 1   
    29    17    18 1   
    30    17    45 ar  
    31    18    19 1   
    32    18    56 1   
    33    18    57 1   
    34    19    20 1   
    35    19    58 1   
    36    20    21 2   
    37    20    22 1   
    38    22    23 ar  
    39    22    27 ar  
    40    23    24 ar  
    41    23    59 1   
    42    24    25 ar  
    43    24    42 1   
    44    25    26 ar  
    45    25    60 1   
    46    26    27 ar  
    47    26    28 1   
    48    27    61 1   
    49    28    29 2   
    50    28    30 1   
    51    30    31 1   
    52    30    62 1   
    53    31    32 1   
    54    31    63 1   
    55    31    64 1   
    56    32    33 ar  
    57    32    41 ar  
    58    33    34 ar  
    59    33    65 1   
    60    34    35 ar  
    61    34    66 1   
    62    35    36 1   
    63    35    40 ar  
    64    36    37 1   
    65    36    67 1   
    66    36    68 1   
    67    37    38 1   
    68    37    69 1   
    69    38    39 2   
    70    40    41 ar  
    71    40    70 1   
    72    41    71 1   
    73    42    43 1   
    74    42    44 2   
    75    43    72 1   
    76    45    46 ar  
    77    45    73 1   
    78    46    74 1   
@<TRIPOS>SUBSTRUCTURE
     1 106         1 TEMP              0 ****  ****    0 ROOT
