@<TRIPOS>MOLECULE
DMP
  158   162     1     0     0
SMALL
bcc


@<TRIPOS>ATOM
      1 C1           7.0520     1.1260    -4.5350 c3         1 DMP      -0.045400
      2 N1           6.9780     1.7240    -3.1820 na         1 DMP       0.113900
      3 C2           7.9230     1.4400    -2.2470 ca         1 DMP      -0.028900
      4 C3           7.9780     2.1260    -1.0330 ca         1 DMP      -0.123000
      5 C4           6.9960     3.0490    -0.7260 ca         1 DMP      -0.023500
      6 C5           5.9670     3.2510    -1.6330 ca         1 DMP      -0.123000
      7 C6           5.9780     2.5960    -2.8700 ca         1 DMP      -0.028900
      8 C7           4.8020     2.6740    -3.7680 c          1 DMP       0.666700
      9 O1           4.3350     1.6060    -4.1570 o          1 DMP      -0.530100
     10 N2           4.2650     3.8560    -4.2030 n          1 DMP      -0.540150
     11 C8           4.6340     5.2740    -4.0000 c3         1 DMP       0.056700
     12 C9           3.9400     5.8650    -2.7640 c          1 DMP       0.610100
     13 O2           3.3100     5.1900    -1.9570 o          1 DMP      -0.516500
     14 O3           4.1590     7.1750    -2.5320 oh         1 DMP      -0.586600
     15 C10          4.3900     6.0930    -5.2840 c3         1 DMP      -0.064300
     16 S1           2.7580     5.9120    -6.1060 ss         1 DMP      -0.112100
     17 S2           1.5090     7.2470    -5.1750 ss         1 DMP      -0.142100
     18 C11          0.6450     6.3240    -3.8460 c3         1 DMP      -0.048800
     19 C12         -0.3250     5.2090    -4.2520 c3         1 DMP       0.054700
     20 C13          0.3950     3.9550    -4.7610 c          1 DMP       0.621850
     21 O4           1.5240     3.6140    -4.4270 o          1 DMP      -0.540000
     22 O5          -0.3870     3.1620    -5.5330 oh         1 DMP      -0.579100
     23 N3          -1.0790     4.7490    -3.0740 n          1 DMP      -0.565400
     24 C14         -2.2160     3.9880    -3.2290 c          1 DMP       0.691200
     25 O6          -2.7300     3.8150    -4.3300 o          1 DMP      -0.633100
     26 C15         -2.7460     3.3150    -2.0130 ca         1 DMP      -0.122100
     27 C16         -4.1250     3.0750    -1.9220 ca         1 DMP      -0.091625
     28 C17         -4.6500     2.3980    -0.8160 ca         1 DMP      -0.091625
     29 C18         -3.7860     1.9660     0.1920 ca         1 DMP      -0.122100
     30 C19         -2.4080     2.1800     0.1000 ca         1 DMP      -0.091625
     31 C20         -1.8870     2.8540    -1.0040 ca         1 DMP      -0.091625
     32 C21         -4.2970     1.2040     1.3400 c          1 DMP       0.691200
     33 O7          -4.4880    -0.0030     1.2280 o          1 DMP      -0.633100
     34 N4          -4.5130     1.8540     2.5210 n          1 DMP      -0.565400
     35 C22         -4.3740     3.2910     2.8250 c3         1 DMP       0.054700
     36 C23         -3.0080     3.6160     3.4360 c          1 DMP       0.621850
     37 O8          -2.6380     4.7220     3.7950 o          1 DMP      -0.540000
     38 O9          -2.1860     2.5560     3.5720 oh         1 DMP      -0.579100
     39 C24         -5.4530     3.7420     3.8250 c3         1 DMP      -0.048800
     40 S3          -7.1390     3.5190     3.1290 ss         1 DMP      -0.142100
     41 S4          -8.3600     3.5970     4.7830 ss         1 DMP      -0.112100
     42 C25         -9.0520     1.8990     4.9120 c3         1 DMP      -0.064300
     43 C26         -8.4130     1.0420     6.0130 c3         1 DMP       0.056700
     44 C27         -9.2020    -0.2590     6.1970 c          1 DMP       0.610100
     45 O10        -10.4150    -0.3710     6.1630 o          1 DMP      -0.516500
     46 O11         -8.4430    -1.3460     6.4580 oh         1 DMP      -0.586600
     47 N5          -6.9440     0.9070     5.9300 n          1 DMP      -0.540150
     48 C28         -6.1370     0.2660     5.0300 c2         1 DMP       0.672300
     49 O12         -4.9500     0.5740     4.9470 o          1 DMP      -0.556300
     50 C29         -6.6050    -0.8580     4.1990 cc         1 DMP       0.098000
     51 C30         -7.2760    -0.5880     3.0040 cc         1 DMP      -0.123000
     52 C31         -7.6380    -1.6280     2.1630 cd         1 DMP      -0.023500
     53 C32         -7.2810    -2.9180     2.5130 cd         1 DMP      -0.123000
     54 C33         -6.5730    -3.1430     3.6970 cc         1 DMP       0.078800
     55 C34         -6.1420    -4.5260     4.0180 c          1 DMP       0.665300
     56 O13         -6.4390    -5.0130     5.1000 o          1 DMP      -0.530100
     57 N6          -5.3900    -5.1430     3.0450 n          1 DMP      -0.540150
     58 C35         -4.7230    -6.4290     3.2820 c3         1 DMP       0.056700
     59 C36         -3.3720    -6.3050     3.9970 c          1 DMP       0.610100
     60 O14         -2.5820    -7.2120     4.2020 o          1 DMP      -0.516500
     61 O15         -3.0940    -5.0660     4.4550 oh         1 DMP      -0.586600
     62 C37         -4.5660    -7.2480     1.9920 c3         1 DMP      -0.064300
     63 S5          -4.1170    -6.3840     0.4200 ss         1 DMP      -0.112100
     64 S6          -2.5290    -5.1650     0.8670 ss         1 DMP      -0.142100
     65 C38         -3.1250    -3.5120     0.3200 c3         1 DMP      -0.048800
     66 C39         -2.3240    -2.3620     0.9590 c3         1 DMP       0.054700
     67 C40         -2.7570    -2.2000     2.4320 c          1 DMP       0.621850
     68 O16         -3.8330    -2.5960     2.8750 o          1 DMP      -0.540000
     69 O17         -1.9110    -1.4940     3.2120 oh         1 DMP      -0.579100
     70 N7          -0.8780    -2.5050     0.7050 n          1 DMP      -0.565400
     71 C41          0.0060    -1.4580     0.7920 c          1 DMP       0.691200
     72 O18         -0.2660    -0.4540     1.4430 o          1 DMP      -0.633100
     73 C42          1.3180    -1.6180     0.1110 ca         1 DMP      -0.122100
     74 C43          1.4220    -2.3280    -1.0920 ca         1 DMP      -0.091625
     75 C44          2.6500    -2.4020    -1.7560 ca         1 DMP      -0.091625
     76 C45          3.7790    -1.7800    -1.2100 ca         1 DMP      -0.122100
     77 C46          3.6780    -1.0560    -0.0200 ca         1 DMP      -0.091625
     78 C47          2.4450    -0.9750     0.6410 ca         1 DMP      -0.091625
     79 C48          5.0510    -1.7840    -1.9620 c          1 DMP       0.691200
     80 O19          5.6170    -0.7280    -2.2420 o          1 DMP      -0.633100
     81 N8           5.6140    -2.9680    -2.3540 n          1 DMP      -0.565400
     82 C49          5.3700    -4.3230    -1.8290 c3         1 DMP       0.054700
     83 C50          4.5490    -5.1490    -2.8230 c          1 DMP       0.621850
     84 O20          4.0250    -6.2260    -2.5910 o          1 DMP      -0.540000
     85 O21          4.4910    -4.6210    -4.0640 oh         1 DMP      -0.579100
     86 C51          6.6950    -5.0730    -1.6110 c3         1 DMP      -0.048800
     87 S7           7.6540    -4.6270    -0.1070 ss         1 DMP      -0.142100
     88 S8           8.0850    -2.6210    -0.2180 ss         1 DMP      -0.112100
     89 C52          9.5560    -2.5180    -1.3280 c3         1 DMP      -0.064300
     90 C53          9.1430    -2.1240    -2.7540 c3         1 DMP       0.056700
     91 C54         10.3140    -2.0290    -3.7390 c          1 DMP       0.610100
     92 O22         10.3020    -1.3920    -4.7840 o          1 DMP      -0.516500
     93 O23         11.3680    -2.7990    -3.4180 oh         1 DMP      -0.586600
     94 N9           8.3370    -0.8870    -2.8110 n          1 DMP      -0.540150
     95 C55          8.8840     0.3270    -2.4430 c          1 DMP       0.666700
     96 O24         10.0720     0.5070    -2.2180 o          1 DMP      -0.530100
     97 N10         -6.2470    -2.1250     4.5360 na         1 DMP      -0.276200
     98 C56         -5.4670    -2.4130     5.7600 c3         1 DMP       0.132100
     99 H1           6.4650     0.2060    -4.5490 h1         1 DMP       0.116867
    100 H2           6.6800     1.8440    -5.2710 h1         1 DMP       0.116867
    101 H3           8.0960     0.9300    -4.7950 h1         1 DMP       0.116867
    102 H4           8.7610     1.8990    -0.3110 ha         1 DMP       0.206500
    103 H5           6.9960     3.5580     0.2380 ha         1 DMP       0.191500
    104 H6           5.1300     3.8720    -1.3340 ha         1 DMP       0.206500
    105 H7           3.3190     3.7050    -4.5820 hn         1 DMP       0.362500
    106 H8           5.7060     5.2930    -3.7740 h1         1 DMP       0.105700
    107 H9           4.6910     7.6930    -3.1650 ho         1 DMP       0.461750
    108 H10          4.5980     7.1570    -5.1470 h1         1 DMP       0.117825
    109 H11          5.1120     5.7430    -6.0320 h1         1 DMP       0.117825
    110 H12          0.0750     7.0870    -3.3000 h1         1 DMP       0.105950
    111 H13          1.3790     5.9520    -3.1350 h1         1 DMP       0.105950
    112 H14         -1.0230     5.5710    -5.0160 h1         1 DMP       0.120700
    113 H15         -1.3380     3.4420    -5.5290 ho         1 DMP       0.463250
    114 H16         -0.6110     4.7770    -2.1760 hn         1 DMP       0.332750
    115 H17         -4.7910     3.4050    -2.7190 ha         1 DMP       0.160375
    116 H18         -5.7180     2.2030    -0.7530 ha         1 DMP       0.160375
    117 H19         -1.7390     1.7990     0.8700 ha         1 DMP       0.160375
    118 H20         -0.8090     2.9650    -1.0800 ha         1 DMP       0.160375
    119 H21         -4.4760     1.2380     3.3320 hn         1 DMP       0.332750
    120 H22         -4.4480     3.8600     1.8920 h1         1 DMP       0.120700
    121 H23         -1.3840     2.9170     4.0070 ho         1 DMP       0.463250
    122 H24         -5.3300     4.8030     4.0670 h1         1 DMP       0.105950
    123 H25         -5.3640     3.1770     4.7570 h1         1 DMP       0.105950
    124 H26        -10.1170     2.0310     5.1350 h1         1 DMP       0.117825
    125 H27         -9.0180     1.4070     3.9380 h1         1 DMP       0.117825
    126 H28         -8.5620     1.5640     6.9700 h1         1 DMP       0.105700
    127 H29         -9.1120    -2.0240     6.7190 ho         1 DMP       0.461750
    128 H30         -6.4440     1.6500     6.4110 hn         1 DMP       0.362500
    129 H31         -7.4730     0.4350     2.6950 ha         1 DMP       0.206500
    130 H32         -8.1590    -1.4290     1.2280 ha         1 DMP       0.191500
    131 H33         -7.5380    -3.7490     1.8580 ha         1 DMP       0.206500
    132 H34         -4.8870    -4.5240     2.4150 hn         1 DMP       0.362500
    133 H35         -5.3520    -6.9990     3.9790 h1         1 DMP       0.105700
    134 H36         -2.2280    -5.1790     4.9040 ho         1 DMP       0.461750
    135 H37         -3.8570    -8.0720     2.1260 h1         1 DMP       0.117825
    136 H38         -5.5340    -7.7150     1.7740 h1         1 DMP       0.117825
    137 H39         -3.0000    -3.4760    -0.7680 h1         1 DMP       0.105950
    138 H40         -4.1930    -3.4070     0.5370 h1         1 DMP       0.105950
    139 H41         -2.6200    -1.4310     0.4610 h1         1 DMP       0.120700
    140 H42         -1.2030    -1.0490     2.6830 ho         1 DMP       0.463250
    141 H43         -0.5690    -3.3830     0.3000 hn         1 DMP       0.332750
    142 H44          0.5500    -2.7810    -1.5590 ha         1 DMP       0.160375
    143 H45          2.7050    -2.9010    -2.7210 ha         1 DMP       0.160375
    144 H46          4.5460    -0.5450     0.3900 ha         1 DMP       0.160375
    145 H47          2.3660    -0.3990     1.5610 ha         1 DMP       0.160375
    146 H48          6.2450    -2.9040    -3.1400 hn         1 DMP       0.332750
    147 H49          4.7930    -4.2560    -0.9010 h1         1 DMP       0.120700
    148 H50          3.9830    -5.2760    -4.5930 ho         1 DMP       0.463250
    149 H51          7.3560    -4.9650    -2.4800 h1         1 DMP       0.105950
    150 H52          6.5010    -6.1470    -1.5130 h1         1 DMP       0.105950
    151 H53         10.2260    -1.7650    -0.9010 h1         1 DMP       0.117825
    152 H54         10.0970    -3.4700    -1.3090 h1         1 DMP       0.117825
    153 H55          8.5020    -2.9130    -3.1660 h1         1 DMP       0.105700
    154 H56         12.0300    -2.6390    -4.1270 ho         1 DMP       0.461750
    155 H57          7.3400    -1.0010    -2.6150 hn         1 DMP       0.362500
    156 H58         -6.1110    -2.9720     6.4440 h1         1 DMP       0.116867
    157 H59         -5.1430    -1.5080     6.2710 h1         1 DMP       0.116867
    158 H60         -4.5780    -2.9850     5.4880 h1         1 DMP       0.116867
@<TRIPOS>BOND
     1     1     2 1   
     2     1    99 1   
     3     1   100 1   
     4     1   101 1   
     5     2     3 1   
     6     2     7 2   
     7     3     4 ar  
     8     3    95 1   
     9     4     5 ar  
    10     4   102 1   
    11     5     6 ar  
    12     5   103 1   
    13     6     7 ar  
    14     6   104 1   
    15     7     8 1   
    16     8     9 2   
    17     8    10 1   
    18    10    11 1   
    19    10   105 1   
    20    11    12 1   
    21    11    15 1   
    22    11   106 1   
    23    12    13 2   
    24    12    14 1   
    25    14   107 1   
    26    15    16 1   
    27    15   108 1   
    28    15   109 1   
    29    16    17 1   
    30    17    18 1   
    31    18    19 1   
    32    18   110 1   
    33    18   111 1   
    34    19    20 1   
    35    19    23 1   
    36    19   112 1   
    37    20    21 2   
    38    20    22 1   
    39    22   113 1   
    40    23    24 1   
    41    23   114 1   
    42    24    25 2   
    43    24    26 1   
    44    26    27 ar  
    45    26    31 ar  
    46    27    28 ar  
    47    27   115 1   
    48    28    29 ar  
    49    28   116 1   
    50    29    30 ar  
    51    29    32 1   
    52    30    31 ar  
    53    30   117 1   
    54    31   118 1   
    55    32    33 2   
    56    32    34 1   
    57    34    35 1   
    58    34   119 1   
    59    35    36 1   
    60    35    39 1   
    61    35   120 1   
    62    36    37 2   
    63    36    38 1   
    64    38   121 1   
    65    39    40 1   
    66    39   122 1   
    67    39   123 1   
    68    40    41 1   
    69    41    42 1   
    70    42    43 1   
    71    42   124 1   
    72    42   125 1   
    73    43    44 1   
    74    43    47 1   
    75    43   126 1   
    76    44    45 2   
    77    44    46 1   
    78    46   127 1   
    79    47    48 1   
    80    47   128 1   
    81    48    49 1   
    82    48    50 2   
    83    50    51 1   
    84    50    97 1   
    85    51    52 2   
    86    51   129 1   
    87    52    53 1   
    88    52   130 1   
    89    53    54 2   
    90    53   131 1   
    91    54    55 1   
    92    54    97 1   
    93    55    56 2   
    94    55    57 1   
    95    57    58 1   
    96    57   132 1   
    97    58    59 1   
    98    58    62 1   
    99    58   133 1   
   100    59    60 2   
   101    59    61 1   
   102    61   134 1   
   103    62    63 1   
   104    62   135 1   
   105    62   136 1   
   106    63    64 1   
   107    64    65 1   
   108    65    66 1   
   109    65   137 1   
   110    65   138 1   
   111    66    67 1   
   112    66    70 1   
   113    66   139 1   
   114    67    68 2   
   115    67    69 1   
   116    69   140 1   
   117    70    71 1   
   118    70   141 1   
   119    71    72 2   
   120    71    73 1   
   121    73    74 ar  
   122    73    78 ar  
   123    74    75 ar  
   124    74   142 1   
   125    75    76 ar  
   126    75   143 1   
   127    76    77 ar  
   128    76    79 1   
   129    77    78 ar  
   130    77   144 1   
   131    78   145 1   
   132    79    80 2   
   133    79    81 1   
   134    81    82 1   
   135    81   146 1   
   136    82    83 1   
   137    82    86 1   
   138    82   147 1   
   139    83    84 2   
   140    83    85 1   
   141    85   148 1   
   142    86    87 1   
   143    86   149 1   
   144    86   150 1   
   145    87    88 1   
   146    88    89 1   
   147    89    90 1   
   148    89   151 1   
   149    89   152 1   
   150    90    91 1   
   151    90    94 1   
   152    90   153 1   
   153    91    92 2   
   154    91    93 1   
   155    93   154 1   
   156    94    95 1   
   157    94   155 1   
   158    95    96 2   
   159    97    98 1   
   160    98   156 1   
   161    98   157 1   
   162    98   158 1   
@<TRIPOS>SUBSTRUCTURE
     1 DMP         1 TEMP              0 ****  ****    0 ROOT
