@<TRIPOS>MOLECULE
ASB
  100   104     1     0     0
SMALL
bcc


@<TRIPOS>ATOM
      1 C           -0.2780    -3.8850    -2.8330 c3         0 ASB       0.110200
      2 O           -0.2050    -3.1950    -1.5840 os         0 ASB      -0.379900
      3 C1          -0.1290    -4.1440    -0.6150 ca         0 ASB       0.104600
      4 C2          -1.2900    -4.6590    -0.0520 ca         0 ASB      -0.131300
      5 C3          -2.6360    -4.2080    -0.5420 c3         0 ASB       0.133050
      6 N           -2.8890    -2.8010    -0.1710 n          0 ASB      -0.542650
      7 C4          -4.1910    -2.4860    -0.0340 c          0 ASB       0.664700
      8 O1          -4.9700    -3.4180     0.0100 o          0 ASB      -0.561100
      9 C5          -4.7730    -1.1430     0.0670 ca         0 ASB      -0.173100
     10 C6          -4.0260     0.0330     0.0070 ca         0 ASB       0.016000
     11 C7          -4.6980     1.2560     0.0880 ca         0 ASB      -0.173100
     12 C8          -6.0940     1.2410     0.2540 ca         0 ASB       0.099150
     13 C9          -6.8380     2.5470     0.3640 c3         0 ASB      -0.105550
     14 N1          -6.7630     0.1130     0.3140 na         0 ASB       0.006400
     15 C10         -8.2170     0.1560     0.4860 c3         0 ASB      -0.039400
     16 C11         -6.1660    -1.0490     0.2250 ca         0 ASB       0.099150
     17 C12         -6.9890    -2.3100     0.2930 c3         0 ASB      -0.105550
     18 C13         -4.0390     2.5550    -0.0240 c          0 ASB       0.664700
     19 O2          -4.7540     3.5340     0.0660 o          0 ASB      -0.561100
     20 N2          -2.7280     2.7880    -0.2150 n          0 ASB      -0.542650
     21 C14         -2.4050     4.1410    -0.7170 c3         0 ASB       0.133050
     22 C15         -1.1120     4.6360    -0.1410 ca         0 ASB      -0.131300
     23 C16          0.0910     4.1470    -0.6280 ca         0 ASB       0.104600
     24 O3           0.0970     3.1970    -1.5990 os         0 ASB      -0.379900
     25 C17          0.1100     3.8860    -2.8510 c3         0 ASB       0.110200
     26 C18          1.2900     4.6300    -0.1200 ca         0 ASB      -0.131300
     27 C19          2.5960     4.1430    -0.6740 c3         0 ASB       0.133050
     28 N3           2.8810     2.7640    -0.2150 n          0 ASB      -0.542650
     29 C20          4.1930     2.4790    -0.0750 c          0 ASB       0.664700
     30 O4           4.9590     3.4220    -0.0440 o          0 ASB      -0.561100
     31 C21          4.7800     1.1440     0.0450 ca         0 ASB      -0.173100
     32 C22          6.1690     1.0520     0.2410 ca         0 ASB       0.099150
     33 C23          6.9880     2.3140     0.3360 c3         0 ASB      -0.105550
     34 N4           6.7650    -0.1140     0.3430 na         0 ASB       0.006400
     35 C24          8.2130    -0.1570     0.5590 c3         0 ASB      -0.039400
     36 C25          6.0980    -1.2430     0.2580 ca         0 ASB       0.099150
     37 C26          6.8370    -2.5500     0.3810 c3         0 ASB      -0.105550
     38 C27          4.7100    -1.2520     0.0550 ca         0 ASB      -0.173100
     39 C28          4.0360    -0.0330    -0.0370 ca         0 ASB       0.016000
     40 C29          4.0480    -2.5540    -0.0950 c          0 ASB       0.664700
     41 O5           4.7590    -3.5400    -0.0780 o          0 ASB      -0.561100
     42 N5           2.7240    -2.7570    -0.2500 n          0 ASB      -0.542650
     43 C30          2.3560    -4.0670    -0.8220 c3         0 ASB       0.133050
     44 C31          1.1090    -4.6040    -0.1880 ca         0 ASB      -0.131300
     45 C32          1.1810    -5.5570     0.8100 ca         0 ASB      -0.101750
     46 C33          0.0220    -6.0650     1.3780 ca         0 ASB      -0.063300
     47 C34          0.1060    -7.0990     2.4710 c3         0 ASB      -0.065800
     48 C35         -1.2070    -5.6090     0.9500 ca         0 ASB      -0.101750
     49 C36          1.2800     5.5800     0.8850 ca         0 ASB      -0.101750
     50 C37          0.0800     6.0610     1.3780 ca         0 ASB      -0.063300
     51 C38          0.0730     7.0950     2.4750 c3         0 ASB      -0.065800
     52 C39         -1.1130     5.5890     0.8600 ca         0 ASB      -0.101750
     53 H           -0.4350    -3.1660    -3.6370 h1         0 ASB       0.053867
     54 H1           0.6530    -4.4250    -3.0050 h1         0 ASB       0.053867
     55 H2          -1.1080    -4.5910    -2.8100 h1         0 ASB       0.053867
     56 H3          -2.6730    -4.3040    -1.6280 h1         0 ASB       0.084575
     57 H4          -3.4080    -4.8390    -0.1020 h1         0 ASB       0.084575
     58 H5          -2.1760    -2.1580    -0.0350 hn         0 ASB       0.320250
     59 H6          -2.9520    -0.0000    -0.0990 ha         0 ASB       0.189500
     60 H7          -7.0210     2.9460    -0.6340 hc         0 ASB       0.105117
     61 H8          -7.7890     2.3820     0.8690 hc         0 ASB       0.105117
     62 H9          -6.2410     3.2580     0.9350 hc         0 ASB       0.105117
     63 H10         -8.6970     0.2080    -0.4920 h1         0 ASB       0.103200
     64 H11         -8.5480    -0.7430     1.0060 h1         0 ASB       0.103200
     65 H12         -8.4880     1.0350     1.0710 h1         0 ASB       0.103200
     66 H13         -7.1820    -2.6720    -0.7170 hc         0 ASB       0.105117
     67 H14         -6.4440    -3.0700     0.8530 hc         0 ASB       0.105117
     68 H15         -7.9350    -2.1000     0.7910 hc         0 ASB       0.105117
     69 H16         -2.0480     2.1200    -0.0360 hn         0 ASB       0.320250
     70 H17         -2.3230     4.1090    -1.8040 h1         0 ASB       0.084575
     71 H18         -3.2060     4.8260    -0.4400 h1         0 ASB       0.084575
     72 H19          0.1140     3.1610    -3.6650 h1         0 ASB       0.053867
     73 H20         -0.7780     4.5140    -2.9290 h1         0 ASB       0.053867
     74 H21          1.0020     4.5090    -2.9140 h1         0 ASB       0.053867
     75 H22          2.5510     4.1560    -1.7630 h1         0 ASB       0.084575
     76 H23          3.3960     4.8040    -0.3410 h1         0 ASB       0.084575
     77 H24          2.1810     2.1180    -0.0300 hn         0 ASB       0.320250
     78 H25          6.8530     2.7620     1.3200 hc         0 ASB       0.105117
     79 H26          8.0420     2.0750     0.1880 hc         0 ASB       0.105117
     80 H27          6.6640     3.0170    -0.4310 hc         0 ASB       0.105117
     81 H28          8.4250    -0.0710     1.6250 h1         0 ASB       0.103200
     82 H29          8.6090    -1.1020     0.1850 h1         0 ASB       0.103200
     83 H30          8.6850     0.6700     0.0280 h1         0 ASB       0.103200
     84 H31          6.6710    -2.9700     1.3740 hc         0 ASB       0.105117
     85 H32          6.4720    -3.2470    -0.3730 hc         0 ASB       0.105117
     86 H33          7.9040    -2.3800     0.2330 hc         0 ASB       0.105117
     87 H34          2.9650    -0.0020    -0.1680 ha         0 ASB       0.189500
     88 H35          2.0620    -2.0910    -0.0040 hn         0 ASB       0.320250
     89 H36          2.1910    -3.9560    -1.8930 h1         0 ASB       0.084575
     90 H37          3.1720    -4.7710    -0.6570 h1         0 ASB       0.084575
     91 H38          2.1440    -5.9070     1.1500 ha         0 ASB       0.151500
     92 H39          0.1430    -6.6010     3.4400 hc         0 ASB       0.059367
     93 H40         -0.7710    -7.7450     2.4280 hc         0 ASB       0.059367
     94 H41          1.0060    -7.6990     2.3350 hc         0 ASB       0.059367
     95 H42         -2.1100    -6.0060     1.3890 ha         0 ASB       0.151500
     96 H43          2.2120     5.9480     1.2870 ha         0 ASB       0.151500
     97 H44          0.0810     8.0920     2.0340 hc         0 ASB       0.059367
     98 H45         -0.8240     6.9730     3.0820 hc         0 ASB       0.059367
     99 H46          0.9560     6.9660     3.1010 hc         0 ASB       0.059367
    100 H47         -2.0500     5.9680     1.2400 ha         0 ASB       0.151500
@<TRIPOS>BOND
     1     1     2 1   
     2     1    53 1   
     3     1    54 1   
     4     1    55 1   
     5     2     3 1   
     6     3     4 ar  
     7     3    44 ar  
     8     4     5 1   
     9     4    48 ar  
    10     5     6 1   
    11     5    56 1   
    12     5    57 1   
    13     6     7 1   
    14     6    58 1   
    15     7     8 2   
    16     7     9 1   
    17     9    10 ar  
    18     9    16 ar  
    19    10    11 ar  
    20    10    59 1   
    21    11    12 ar  
    22    11    18 1   
    23    12    13 1   
    24    12    14 2   
    25    13    60 1   
    26    13    61 1   
    27    13    62 1   
    28    14    15 1   
    29    14    16 1   
    30    15    63 1   
    31    15    64 1   
    32    15    65 1   
    33    16    17 1   
    34    17    66 1   
    35    17    67 1   
    36    17    68 1   
    37    18    19 2   
    38    18    20 1   
    39    20    21 1   
    40    20    69 1   
    41    21    22 1   
    42    21    70 1   
    43    21    71 1   
    44    22    23 ar  
    45    22    52 ar  
    46    23    24 1   
    47    23    26 ar  
    48    24    25 1   
    49    25    72 1   
    50    25    73 1   
    51    25    74 1   
    52    26    27 1   
    53    26    49 ar  
    54    27    28 1   
    55    27    75 1   
    56    27    76 1   
    57    28    29 1   
    58    28    77 1   
    59    29    30 2   
    60    29    31 1   
    61    31    32 ar  
    62    31    39 ar  
    63    32    33 1   
    64    32    34 2   
    65    33    78 1   
    66    33    79 1   
    67    33    80 1   
    68    34    35 1   
    69    34    36 1   
    70    35    81 1   
    71    35    82 1   
    72    35    83 1   
    73    36    37 1   
    74    36    38 ar  
    75    37    84 1   
    76    37    85 1   
    77    37    86 1   
    78    38    39 ar  
    79    38    40 1   
    80    39    87 1   
    81    40    41 2   
    82    40    42 1   
    83    42    43 1   
    84    42    88 1   
    85    43    44 1   
    86    43    89 1   
    87    43    90 1   
    88    44    45 ar  
    89    45    46 ar  
    90    45    91 1   
    91    46    47 1   
    92    46    48 ar  
    93    47    92 1   
    94    47    93 1   
    95    47    94 1   
    96    48    95 1   
    97    49    50 ar  
    98    49    96 1   
    99    50    51 1   
   100    50    52 ar  
   101    51    97 1   
   102    51    98 1   
   103    51    99 1   
   104    52   100 1   
@<TRIPOS>SUBSTRUCTURE
     1 ASB         1 TEMP              0 ****  ****    0 ROOT
