@<TRIPOS>MOLECULE
149
   64    66     1     0     0
SMALL
bcc


@<TRIPOS>ATOM
      1 C            0.5540    -3.7800    -0.4290 c3         0 149       0.128400
      2 C1          -0.6040    -3.6510     0.5620 c3         0 149       0.128400
      3 O           -1.7950    -3.2900    -0.1420 os         0 149      -0.436600
      4 C2          -2.7900    -3.0120     0.8450 c3         0 149       0.113400
      5 C3          -4.0970    -2.6190     0.1530 c3         0 149       0.133400
      6 O1          -3.9420    -1.3380    -0.4620 os         0 149      -0.168900
      7 C4          -5.1060    -0.6650    -0.2600 ca         0 149       0.341100
      8 C5          -5.0830     0.6480     0.2020 ca         0 149       0.341100
      9 O2          -3.8960     1.2630     0.4500 os         0 149      -0.168900
     10 C6          -3.9810     2.5670    -0.1290 c3         0 149       0.133400
     11 C7          -2.6340     2.9360    -0.7530 c3         0 149       0.113400
     12 O3          -1.7720     3.4650     0.2560 os         0 149      -0.436600
     13 C8          -0.5680     3.8700    -0.4000 c3         0 149       0.128400
     14 C9           0.6090     3.7360     0.5680 c3         0 149       0.128400
     15 O4           1.7810     3.3560    -0.1570 os         0 149      -0.436600
     16 C10          2.7360     2.9070     0.8070 c3         0 149       0.113400
     17 C11          4.0520     2.5750     0.1010 c3         0 149       0.133400
     18 O5           3.9460     1.2960    -0.5260 os         0 149      -0.168900
     19 C12          5.1130     0.6420    -0.2800 ca         0 149       0.341100
     20 C13          5.0930    -0.6630     0.2040 ca         0 149       0.341100
     21 O6           3.9070    -1.2890     0.4290 os         0 149      -0.168900
     22 C14          4.0080    -2.5840    -0.1670 c3         0 149       0.133400
     23 C15          2.6650    -2.9610    -0.7970 c3         0 149       0.113400
     24 O7           1.7770    -3.4270     0.2190 os         0 149      -0.436600
     25 C16          6.2840    -1.3230     0.4570 ca         0 149      -0.255000
     26 C17          7.4900    -0.6870     0.2260 ca         0 149       0.077000
     27 C18          7.5100     0.6080    -0.2580 ca         0 149       0.077000
     28 C19          6.3250     1.2730    -0.5110 ca         0 149      -0.255000
     29 C20         -6.2730     1.3270     0.4080 ca         0 149      -0.255000
     30 C21         -7.4790     0.7020     0.1520 ca         0 149       0.077000
     31 C22         -7.5020    -0.6010    -0.3090 ca         0 149       0.077000
     32 C23         -6.3190    -1.2850    -0.5160 ca         0 149      -0.255000
     33 H            0.6150    -4.8080    -0.7860 h1         0 149       0.066700
     34 H1           0.3850    -3.1120    -1.2740 h1         0 149       0.066700
     35 H2          -0.7570    -4.6040     1.0680 h1         0 149       0.066700
     36 H3          -0.3700    -2.8820     1.2980 h1         0 149       0.066700
     37 H4          -2.9550    -3.9010     1.4550 h1         0 149       0.096200
     38 H5          -2.4540    -2.1930     1.4800 h1         0 149       0.096200
     39 H6          -4.3420    -3.3600    -0.6080 h1         0 149       0.131200
     40 H7          -4.8990    -2.5740     0.8890 h1         0 149       0.131200
     41 H8          -4.7520     2.5730    -0.8990 h1         0 149       0.131200
     42 H9          -4.2340     3.2920     0.6440 h1         0 149       0.131200
     43 H10         -2.1790     2.0460    -1.1890 h1         0 149       0.096200
     44 H11         -2.7860     3.6840    -1.5310 h1         0 149       0.096200
     45 H12         -0.3970     3.2350    -1.2690 h1         0 149       0.066700
     46 H13         -0.6600     4.9070    -0.7200 h1         0 149       0.066700
     47 H14          0.7820     4.6920     1.0640 h1         0 149       0.066700
     48 H15          0.3810     2.9760     1.3150 h1         0 149       0.066700
     49 H16          2.9060     3.6930     1.5430 h1         0 149       0.096200
     50 H17          2.3560     2.0160     1.3060 h1         0 149       0.096200
     51 H18          4.2620     3.3340    -0.6530 h1         0 149       0.131200
     52 H19          4.8610     2.5560     0.8320 h1         0 149       0.131200
     53 H20          4.7790    -2.5710    -0.9370 h1         0 149       0.131200
     54 H21          4.2690    -3.3170     0.5970 h1         0 149       0.131200
     55 H22          2.2340    -2.0870    -1.2840 h1         0 149       0.096200
     56 H23          2.8180    -3.7490    -1.5350 h1         0 149       0.096200
     57 H24          6.2720    -2.3350     0.8350 ha         0 149       0.231000
     58 H25          8.4180    -1.2030     0.4230 ha         0 149       0.248000
     59 H26          8.4530     1.1010    -0.4380 ha         0 149       0.248000
     60 H27          6.3430     2.2850    -0.8880 ha         0 149       0.231000
     61 H28         -6.2580     2.3450     0.7680 ha         0 149       0.231000
     62 H29         -8.4060     1.2330     0.3130 ha         0 149       0.248000
     63 H30         -8.4470    -1.0850    -0.5090 ha         0 149       0.248000
     64 H31         -6.3400    -2.3030    -0.8760 ha         0 149       0.231000
@<TRIPOS>BOND
     1     1     2 1   
     2     1    24 1   
     3     1    33 1   
     4     1    34 1   
     5     2     3 1   
     6     2    35 1   
     7     2    36 1   
     8     3     4 1   
     9     4     5 1   
    10     4    37 1   
    11     4    38 1   
    12     5     6 1   
    13     5    39 1   
    14     5    40 1   
    15     6     7 1   
    16     7     8 ar  
    17     7    32 ar  
    18     8     9 1   
    19     8    29 ar  
    20     9    10 1   
    21    10    11 1   
    22    10    41 1   
    23    10    42 1   
    24    11    12 1   
    25    11    43 1   
    26    11    44 1   
    27    12    13 1   
    28    13    14 1   
    29    13    45 1   
    30    13    46 1   
    31    14    15 1   
    32    14    47 1   
    33    14    48 1   
    34    15    16 1   
    35    16    17 1   
    36    16    49 1   
    37    16    50 1   
    38    17    18 1   
    39    17    51 1   
    40    17    52 1   
    41    18    19 1   
    42    19    20 ar  
    43    19    28 ar  
    44    20    21 1   
    45    20    25 ar  
    46    21    22 1   
    47    22    23 1   
    48    22    53 1   
    49    22    54 1   
    50    23    24 1   
    51    23    55 1   
    52    23    56 1   
    53    25    26 ar  
    54    25    57 1   
    55    26    27 ar  
    56    26    58 1   
    57    27    28 ar  
    58    27    59 1   
    59    28    60 1   
    60    29    30 ar  
    61    29    61 1   
    62    30    31 ar  
    63    30    62 1   
    64    31    32 ar  
    65    31    63 1   
    66    32    64 1   
@<TRIPOS>SUBSTRUCTURE
     1 149         1 TEMP              0 ****  ****    0 ROOT
