@<TRIPOS>MOLECULE
URE
   96    99     1     0     0
SMALL
bcc


@<TRIPOS>ATOM
      1 O            6.3210    -3.5390     4.2090 o          0 URE      -0.788717
      2 C            5.5760    -3.1500     3.3250 c          0 URE       0.892933
      3 O1           5.9530    -2.2950     2.5420 o          0 URE      -0.788717
      4 C1           4.1910    -3.7300     3.1980 c3         0 URE      -0.003300
      5 C2           3.2050    -2.9050     4.0360 c3         0 URE       0.019200
      6 S            3.7390    -1.1720     4.0390 ss         0 URE      -0.316267
      7 S1           1.9270    -0.2270     4.1630 ss         0 URE      -0.316267
      8 C3           2.4720     1.5030     4.2010 c3         0 URE       0.019200
      9 C4           1.3140     2.3960     4.6500 c3         0 URE      -0.003300
     10 N            0.6370     2.9470     3.4750 n          0 URE      -0.517400
     11 C5          -0.6590     2.6600     3.2520 c          0 URE       0.671200
     12 O2          -1.3070     2.0840     4.1040 o          0 URE      -0.649933
     13 C6          -1.2970     3.0450     1.9770 ca         0 URE      -0.154100
     14 C7          -0.6000     3.7980     1.0350 ca         0 URE      -0.049333
     15 C8          -1.2090     4.1560    -0.1690 ca         0 URE      -0.154100
     16 C9          -2.5260     3.7800    -0.4230 ca         0 URE      -0.049333
     17 C10         -3.2140     3.0020     0.5080 ca         0 URE      -0.154100
     18 C11         -2.6070     2.6530     1.7130 ca         0 URE      -0.049333
     19 C12         -4.5670     2.4970     0.1990 c          0 URE       0.671200
     20 O3          -5.1010     2.8120    -0.8470 o          0 URE      -0.649933
     21 N1          -5.2130     1.6930     1.0580 n          0 URE      -0.517400
     22 C13         -6.3380     0.8690     0.6240 c3         0 URE      -0.003300
     23 C14         -5.8790    -0.5820     0.4550 c3         0 URE       0.019200
     24 S2          -5.4810    -0.8840    -1.2890 ss         0 URE      -0.316267
     25 S3          -4.3510    -2.5850    -1.1120 ss         0 URE      -0.316267
     26 C15         -4.1100    -2.9900    -2.8630 c3         0 URE       0.019200
     27 C16         -3.3370    -4.3060    -2.9840 c3         0 URE      -0.003300
     28 N2          -1.9080    -4.0410    -2.8020 n          0 URE      -0.517400
     29 C17         -1.2910    -4.4640    -1.6830 c          0 URE       0.671200
     30 O4          -1.8630    -5.2160    -0.9190 o          0 URE      -0.649933
     31 C18          0.0840    -4.0130    -1.3860 ca         0 URE      -0.154100
     32 C19          0.6790    -4.3430    -0.1720 ca         0 URE      -0.049333
     33 C20          1.9620    -3.8940     0.1300 ca         0 URE      -0.154100
     34 C21          2.6720    -3.1450    -0.8080 ca         0 URE      -0.049333
     35 C22          2.0760    -2.8100    -2.0230 ca         0 URE      -0.154100
     36 C23          0.7860    -3.2500    -2.3200 ca         0 URE      -0.049333
     37 C24          2.8110    -1.9640    -2.9880 c          0 URE       0.671200
     38 O5           3.9500    -1.6200    -2.7380 o          0 URE      -0.649933
     39 N3           2.2350    -1.5730    -4.1370 n          0 URE      -0.517400
     40 C25          2.9010    -0.5950    -4.9990 c3         0 URE      -0.003300
     41 C26          2.1740     0.7480    -4.8990 c3         0 URE       0.019200
     42 S4           2.9440     1.7560    -3.6030 ss         0 URE      -0.316267
     43 S5           1.5950     3.2980    -3.4930 ss         0 URE      -0.316267
     44 C27          2.6070     4.5430    -2.6450 c3         0 URE       0.019200
     45 C28          1.6970     5.6510    -2.1040 c3         0 URE      -0.003300
     46 N4           0.8780     5.1120    -1.0160 n          0 URE      -0.517400
     47 C29         -0.4340     4.8850    -1.1950 c          0 URE       0.671200
     48 O6          -0.9850     5.2780    -2.2050 o          0 URE      -0.649933
     49 C30          2.5400     6.7870    -1.5840 c          0 URE       0.892933
     50 O7           2.8620     7.6970    -2.3280 o          0 URE      -0.788717
     51 O8           2.9000     6.7950    -0.4190 o          0 URE      -0.788717
     52 C31          4.3320    -0.4260    -4.5560 c          0 URE       0.892933
     53 O9           5.2360    -0.9060    -5.2180 o          0 URE      -0.788717
     54 O10          4.5850     0.1910    -3.5350 o          0 URE      -0.788717
     55 C32          2.5530    -4.1750     1.4540 c          0 URE       0.671200
     56 O11          1.9420    -4.8640     2.2480 o          0 URE      -0.649933
     57 N5           3.7610    -3.6800     1.7960 n          0 URE      -0.517400
     58 C33         -3.8100    -5.2680    -1.9250 c          0 URE       0.892933
     59 O12         -4.0410    -6.4290    -2.2160 o          0 URE      -0.788717
     60 O13         -3.9620    -4.8850    -0.7780 o          0 URE      -0.788717
     61 C34         -7.4330     0.9310     1.6580 c          0 URE       0.892933
     62 O14         -7.2850     1.6030     2.6630 o          0 URE      -0.788717
     63 O15         -8.4680     0.3080     1.4880 o          0 URE      -0.788717
     64 C35          0.3360     1.5830     5.4570 c          0 URE       0.892933
     65 O16          0.0120     1.9510     6.5740 o          0 URE      -0.788717
     66 O17         -0.1310     0.5560     4.9950 o          0 URE      -0.788717
     67 H            4.1920    -4.7640     3.5450 h1         0 URE       0.089700
     68 H1           2.2070    -2.9780     3.6030 h1         0 URE       0.057283
     69 H2           3.1890    -3.2830     5.0580 h1         0 URE       0.057283
     70 H3           3.3020     1.6070     4.8990 h1         0 URE       0.057283
     71 H4           2.7960     1.8030     3.2040 h1         0 URE       0.057283
     72 H5           1.7010     3.2120     5.2610 h1         0 URE       0.089700
     73 H6           1.1220     3.5160     2.8570 hn         0 URE       0.319500
     74 H7           0.4160     4.1050     1.2360 ha         0 URE       0.160833
     75 H8          -3.0130     4.0900    -1.3360 ha         0 URE       0.160833
     76 H9          -3.1530     2.0760     2.4440 ha         0 URE       0.160833
     77 H10         -4.9280     1.6600     1.9850 hn         0 URE       0.319500
     78 H11         -6.7160     1.2430    -0.3270 h1         0 URE       0.089700
     79 H12         -4.9940    -0.7580     1.0660 h1         0 URE       0.057283
     80 H13         -6.6780    -1.2550     0.7670 h1         0 URE       0.057283
     81 H14         -5.0800    -3.0930    -3.3480 h1         0 URE       0.057283
     82 H15         -3.5460    -2.1920    -3.3460 h1         0 URE       0.057283
     83 H16         -3.5040    -4.7370    -3.9710 h1         0 URE       0.089700
     84 H17         -1.4100    -3.5630    -3.4830 hn         0 URE       0.319500
     85 H18          0.1410    -4.9520     0.5400 ha         0 URE       0.160833
     86 H19          3.6810    -2.8240    -0.5930 ha         0 URE       0.160833
     87 H20          0.3330    -3.0020    -3.2680 ha         0 URE       0.160833
     88 H21          1.3750    -1.9400    -4.3960 hn         0 URE       0.319500
     89 H22          2.8790    -0.9440    -6.0310 h1         0 URE       0.089700
     90 H23          2.2410     1.2700    -5.8540 h1         0 URE       0.057283
     91 H24          1.1260     0.5770    -4.6520 h1         0 URE       0.057283
     92 H25          3.1420     4.0760    -1.8190 h1         0 URE       0.057283
     93 H26          3.3220     4.9710    -3.3480 h1         0 URE       0.057283
     94 H27          1.0490     6.0130    -2.9020 h1         0 URE       0.089700
     95 H28          1.2860     4.9170    -0.1580 hn         0 URE       0.319500
     96 H29          4.3400    -3.2930     1.1210 hn         0 URE       0.319500
@<TRIPOS>BOND
     1     1     2 1   
     2     2     3 1   
     3     2     4 1   
     4     4     5 1   
     5     4    57 1   
     6     4    67 1   
     7     5     6 1   
     8     5    68 1   
     9     5    69 1   
    10     6     7 1   
    11     7     8 1   
    12     8     9 1   
    13     8    70 1   
    14     8    71 1   
    15     9    10 1   
    16     9    64 1   
    17     9    72 1   
    18    10    11 1   
    19    10    73 1   
    20    11    12 2   
    21    11    13 1   
    22    13    14 ar  
    23    13    18 ar  
    24    14    15 ar  
    25    14    74 1   
    26    15    16 ar  
    27    15    47 1   
    28    16    17 ar  
    29    16    75 1   
    30    17    18 ar  
    31    17    19 1   
    32    18    76 1   
    33    19    20 2   
    34    19    21 1   
    35    21    22 1   
    36    21    77 1   
    37    22    23 1   
    38    22    61 1   
    39    22    78 1   
    40    23    24 1   
    41    23    79 1   
    42    23    80 1   
    43    24    25 1   
    44    25    26 1   
    45    26    27 1   
    46    26    81 1   
    47    26    82 1   
    48    27    28 1   
    49    27    58 1   
    50    27    83 1   
    51    28    29 1   
    52    28    84 1   
    53    29    30 2   
    54    29    31 1   
    55    31    32 ar  
    56    31    36 ar  
    57    32    33 ar  
    58    32    85 1   
    59    33    34 ar  
    60    33    55 1   
    61    34    35 ar  
    62    34    86 1   
    63    35    36 ar  
    64    35    37 1   
    65    36    87 1   
    66    37    38 2   
    67    37    39 1   
    68    39    40 1   
    69    39    88 1   
    70    40    41 1   
    71    40    52 1   
    72    40    89 1   
    73    41    42 1   
    74    41    90 1   
    75    41    91 1   
    76    42    43 1   
    77    43    44 1   
    78    44    45 1   
    79    44    92 1   
    80    44    93 1   
    81    45    46 1   
    82    45    49 1   
    83    45    94 1   
    84    46    47 1   
    85    46    95 1   
    86    47    48 2   
    87    49    50 1   
    88    49    51 1   
    89    52    53 1   
    90    52    54 1   
    91    55    56 2   
    92    55    57 1   
    93    57    96 1   
    94    58    59 1   
    95    58    60 1   
    96    61    62 1   
    97    61    63 1   
    98    64    65 1   
    99    64    66 1   
@<TRIPOS>SUBSTRUCTURE
     1 URE         1 TEMP              0 ****  ****    0 ROOT
