@<TRIPOS>MOLECULE
159
  118   133     1     0     0
SMALL
bcc


@<TRIPOS>ATOM
      1 C1           0.2550     2.6810     5.2200 ca         1 159      -0.120000
      2 C2          -1.1260     2.6540     5.3130 ca         1 159      -0.005500
      3 C3          -1.8990     3.0950     4.2400 ca         1 159      -0.188000
      4 C4          -1.3030     3.5800     3.0520 ca         1 159       0.122000
      5 C5           0.1150     3.6210     2.9540 ca         1 159      -0.118000
      6 C6           0.8670     3.1540     4.0590 ca         1 159      -0.067500
      7 C7           0.7190     4.0950     1.7610 c2         1 159       0.180000
      8 C8           2.1730     3.8960     1.5110 ca         1 159      -0.105000
      9 C9           3.1330     4.8690     1.8320 ca         1 159      -0.065000
     10 C10          4.4980     4.6610     1.5590 ca         1 159      -0.098000
     11 C11          4.9400     3.4770     0.9630 ca         1 159      -0.072000
     12 C12          3.9890     2.5140     0.6520 ca         1 159      -0.025000
     13 C13          2.6210     2.7050     0.9150 ca         1 159      -0.102000
     14 N1           4.3780     1.2500     0.0590 na         1 159      -0.067000
     15 C14          4.5940     0.1810     0.8920 ca         1 159       0.120500
     16 C15          4.8910     0.3510     2.2660 ca         1 159      -0.182000
     17 C16          5.0550    -0.7360     3.1230 ca         1 159      -0.009000
     18 C17          4.9210    -2.0210     2.6310 ca         1 159      -0.116000
     19 C18          4.6260    -2.2190     1.2820 ca         1 159      -0.076500
     20 C19          4.4610    -1.1380     0.3790 ca         1 159      -0.112500
     21 C20          4.1390    -1.3300    -0.9920 c2         1 159       0.164000
     22 C21          3.6690    -2.6630    -1.4650 ca         1 159      -0.089000
     23 C22          4.5250    -3.6920    -1.8730 ca         1 159      -0.060000
     24 C23          4.0230    -4.9760    -2.1630 ca         1 159      -0.094000
     25 C24          2.6590    -5.2710    -2.0390 ca         1 159      -0.075000
     26 C25          1.8030    -4.2420    -1.6770 ca         1 159      -0.031000
     27 C26          2.2950    -2.9460    -1.4140 ca         1 159      -0.109000
     28 N2           0.3890    -4.4710    -1.3690 na         1 159      -0.052000
     29 C27         -0.5230    -4.6180    -2.3850 ca         1 159       0.120000
     30 C28         -0.2140    -5.2390    -3.6090 ca         1 159      -0.169000
     31 C29         -1.1670    -5.3560    -4.6240 ca         1 159      -0.009500
     32 C30         -2.4450    -4.8450    -4.4460 ca         1 159      -0.101000
     33 C31         -2.7750    -4.1950    -3.2610 ca         1 159      -0.097000
     34 C32         -1.8250    -4.0560    -2.2220 ca         1 159      -0.112500
     35 C33         -2.0810    -3.3270    -1.0470 c2         1 159       0.209000
     36 C34         -1.2180    -3.4130     0.0800 ca         1 159      -0.112500
     37 C35         -1.4420    -2.8420     1.3660 ca         1 159      -0.097000
     38 C36         -0.5690    -3.0510     2.4370 ca         1 159      -0.101000
     39 C37          0.5650    -3.8230     2.2640 ca         1 159      -0.009500
     40 C38          0.8480    -4.3430     1.0060 ca         1 159      -0.169000
     41 C39         -0.0060    -4.1150    -0.1030 ca         1 159       0.120000
     42 N3          -3.1210    -2.2740    -1.0470 na         1 159      -0.145000
     43 C40         -2.8590    -1.0860    -1.7020 ca         1 159       0.122500
     44 C41         -1.9680    -0.9760    -2.8000 ca         1 159      -0.189500
     45 C42         -1.7180     0.2350    -3.4520 ca         1 159       0.007000
     46 C43         -2.3480     1.3840    -3.0210 ca         1 159      -0.125500
     47 C44         -3.2010     1.3190    -1.9260 ca         1 159      -0.046000
     48 C45         -3.4540     0.1080    -1.2260 ca         1 159      -0.142500
     49 C46         -4.2410     0.0790    -0.0470 c2         1 159       0.239000
     50 C47         -4.4130     1.3490     0.7220 ca         1 159      -0.124000
     51 C48         -5.6400     1.9930     0.9280 ca         1 159      -0.052000
     52 C49         -5.7050     3.2450     1.5760 ca         1 159      -0.101000
     53 C50         -4.5450     3.9080     1.9940 ca         1 159      -0.055000
     54 C51         -3.3310     3.2800     1.7730 ca         1 159      -0.017000
     55 C52         -3.2560     2.0070     1.1880 ca         1 159      -0.096000
     56 N4          -2.0630     3.9580     1.9780 na         1 159      -0.079000
     57 C53         -1.5190     4.6250     0.9070 ca         1 159       0.122000
     58 C54         -2.3260     5.2010    -0.1030 ca         1 159      -0.188000
     59 C55         -1.7720     5.8160    -1.2250 ca         1 159      -0.005500
     60 C56         -0.3980     5.8650    -1.3690 ca         1 159      -0.120000
     61 C57          0.4220     5.3050    -0.3900 ca         1 159      -0.067500
     62 C58         -0.1060     4.6820     0.7680 ca         1 159      -0.118000
     63 C59         -4.6930    -1.1780     0.4230 ca         1 159      -0.142500
     64 C60         -5.6210    -1.3270     1.4800 ca         1 159      -0.046000
     65 C61         -6.0660    -2.5820     1.8980 ca         1 159      -0.125500
     66 C62         -5.5920    -3.7310     1.2840 ca         1 159       0.007000
     67 C63         -4.6430    -3.6280     0.2710 ca         1 159      -0.189500
     68 C64         -4.1630    -2.3700    -0.1560 ca         1 159       0.122500
     69 C65          4.1230    -0.2050    -1.8500 ca         1 159      -0.112500
     70 C66          3.9470    -0.3250    -3.2490 ca         1 159      -0.076500
     71 C67          3.9160     0.7900    -4.0850 ca         1 159      -0.116000
     72 C68          4.0530     2.0590    -3.5480 ca         1 159      -0.009000
     73 C69          4.2210     2.2130    -2.1720 ca         1 159      -0.182000
     74 C70          4.2610     1.1000    -1.2990 ca         1 159       0.120500
     75 H1           0.8620     2.3620     6.0690 ha         1 159       0.188000
     76 H2          -1.6030     2.3130     6.2330 ha         1 159       0.187500
     77 H3          -2.9790     3.0840     4.3750 ha         1 159       0.170000
     78 H4           1.9570     3.1870     4.0570 ha         1 159       0.167500
     79 H5           2.8340     5.8110     2.2960 ha         1 159       0.182000
     80 H6           5.2180     5.4400     1.8190 ha         1 159       0.196000
     81 H7           5.9980     3.3320     0.7620 ha         1 159       0.187000
     82 H8           1.9060     1.9280     0.6570 ha         1 159       0.139000
     83 H9           5.0360     1.3350     2.7100 ha         1 159       0.173500
     84 H10          5.3130    -0.5790     4.1710 ha         1 159       0.187500
     85 H11          5.0780    -2.8750     3.2910 ha         1 159       0.187500
     86 H12          4.5700    -3.2540     0.9470 ha         1 159       0.165000
     87 H13          5.6030    -3.5240    -1.9400 ha         1 159       0.187000
     88 H14          4.7230    -5.7640    -2.4520 ha         1 159       0.198000
     89 H15          2.3210    -6.2930    -2.1910 ha         1 159       0.184000
     90 H16          1.6170    -2.1530    -1.1090 ha         1 159       0.140000
     91 H17          0.7550    -5.6860    -3.8140 ha         1 159       0.182500
     92 H18         -0.9170    -5.8670    -5.5560 ha         1 159       0.195000
     93 H19         -3.1870    -4.9590    -5.2400 ha         1 159       0.191000
     94 H20         -3.7930    -3.8120    -3.1710 ha         1 159       0.165500
     95 H21         -2.3260    -2.2580     1.6050 ha         1 159       0.165500
     96 H22         -0.7990    -2.6450     3.4240 ha         1 159       0.191000
     97 H23          1.2260    -4.0250     3.1080 ha         1 159       0.195000
     98 H24          1.7520    -4.9450     0.9080 ha         1 159       0.182500
     99 H25         -1.4670    -1.8240    -3.2490 ha         1 159       0.172000
    100 H26         -1.0680     0.2720    -4.3260 ha         1 159       0.191500
    101 H27         -2.2020     2.3250    -3.5520 ha         1 159       0.194500
    102 H28         -3.7070     2.2450    -1.6470 ha         1 159       0.172500
    103 H29         -6.5710     1.5500     0.5690 ha         1 159       0.179000
    104 H30         -6.6790     3.7180     1.7210 ha         1 159       0.199000
    105 H31         -4.6150     4.8960     2.4440 ha         1 159       0.193000
    106 H32         -2.2800     1.5540     1.0280 ha         1 159       0.143000
    107 H33         -3.4120     5.2230    -0.0330 ha         1 159       0.170000
    108 H34         -2.4140     6.2810    -1.9740 ha         1 159       0.187500
    109 H35          0.0410     6.3680    -2.2320 ha         1 159       0.188000
    110 H36          1.4970     5.4040    -0.5420 ha         1 159       0.167500
    111 H37         -6.0510    -0.4660     1.9910 ha         1 159       0.172500
    112 H38         -6.8080    -2.6600     2.6940 ha         1 159       0.194500
    113 H39         -5.9670    -4.7050     1.5990 ha         1 159       0.191500
    114 H40         -4.3050    -4.5580    -0.1820 ha         1 159       0.172000
    115 H41          3.8740    -1.3010    -3.7300 ha         1 159       0.165000
    116 H42          3.8150     0.6650    -5.1640 ha         1 159       0.187500
    117 H43          4.0580     2.9290    -4.2060 ha         1 159       0.187500
    118 H44          4.3560     3.2320    -1.8150 ha         1 159       0.173500
@<TRIPOS>BOND
     1     1     2 1   
     2     1     6 1   
     3     1    75 1   
     4     2     3 1   
     5     2    76 1   
     6     3     4 1   
     7     3    77 1   
     8     4     5 1   
     9     4    56 1   
    10     5     6 1   
    11     5     7 1   
    12     6    78 1   
    13     7     8 1   
    14     7    62 1   
    15     8     9 1   
    16     8    13 1   
    17     9    10 1   
    18     9    79 1   
    19    10    11 1   
    20    10    80 1   
    21    11    12 1   
    22    11    81 1   
    23    12    13 1   
    24    12    14 1   
    25    13    82 1   
    26    14    15 1   
    27    14    74 1   
    28    15    16 1   
    29    15    20 1   
    30    16    17 1   
    31    16    83 1   
    32    17    18 1   
    33    17    84 1   
    34    18    19 1   
    35    18    85 1   
    36    19    20 1   
    37    19    86 1   
    38    20    21 1   
    39    21    22 1   
    40    21    69 1   
    41    22    23 1   
    42    22    27 1   
    43    23    24 1   
    44    23    87 1   
    45    24    25 1   
    46    24    88 1   
    47    25    26 1   
    48    25    89 1   
    49    26    27 1   
    50    26    28 1   
    51    27    90 1   
    52    28    29 1   
    53    28    41 1   
    54    29    30 1   
    55    29    34 1   
    56    30    31 1   
    57    30    91 1   
    58    31    32 1   
    59    31    92 1   
    60    32    33 1   
    61    32    93 1   
    62    33    34 1   
    63    33    94 1   
    64    34    35 1   
    65    35    36 1   
    66    35    42 1   
    67    36    37 1   
    68    36    41 1   
    69    37    38 1   
    70    37    95 1   
    71    38    39 1   
    72    38    96 1   
    73    39    40 1   
    74    39    97 1   
    75    40    41 1   
    76    40    98 1   
    77    42    43 1   
    78    42    68 1   
    79    43    44 1   
    80    43    48 1   
    81    44    45 1   
    82    44    99 1   
    83    45    46 1   
    84    45   100 1   
    85    46    47 1   
    86    46   101 1   
    87    47    48 1   
    88    47   102 1   
    89    48    49 1   
    90    49    50 1   
    91    49    63 1   
    92    50    51 1   
    93    50    55 1   
    94    51    52 1   
    95    51   103 1   
    96    52    53 1   
    97    52   104 1   
    98    53    54 1   
    99    53   105 1   
   100    54    55 1   
   101    54    56 1   
   102    55   106 1   
   103    56    57 1   
   104    57    58 1   
   105    57    62 1   
   106    58    59 1   
   107    58   107 1   
   108    59    60 1   
   109    59   108 1   
   110    60    61 1   
   111    60   109 1   
   112    61    62 1   
   113    61   110 1   
   114    63    64 1   
   115    63    68 1   
   116    64    65 1   
   117    64   111 1   
   118    65    66 1   
   119    65   112 1   
   120    66    67 1   
   121    66   113 1   
   122    67    68 1   
   123    67   114 1   
   124    69    70 1   
   125    69    74 1   
   126    70    71 1   
   127    70   115 1   
   128    71    72 1   
   129    71   116 1   
   130    72    73 1   
   131    72   117 1   
   132    73    74 1   
   133    73   118 1   
@<TRIPOS>SUBSTRUCTURE
     1 159         1 TEMP              0 ****  ****    0 ROOT
