@<TRIPOS>MOLECULE
152
   74    76     1     0     0
SMALL
bcc


@<TRIPOS>ATOM
      1 C            0.3210    -4.6400    -0.4360 c3         0 152       0.112900
      2 C1          -0.8430    -5.0150     0.4840 c3         0 152       0.112900
      3 O           -2.0760    -4.8680    -0.2240 os         0 152      -0.431600
      4 C2          -2.6390    -3.6190     0.1820 c3         0 152       0.113900
      5 C3          -4.0210    -3.4540    -0.4530 c3         0 152       0.124400
      6 O1          -4.5990    -2.2170    -0.0300 os         0 152      -0.419100
      7 C4          -6.0080    -2.3350    -0.2280 c3         0 152       0.081100
      8 C5          -6.6640    -0.9920    -0.0350 ca         0 152       0.380350
      9 C6          -8.0020    -0.9320     0.3070 ca         0 152      -0.226550
     10 C7          -8.6000     0.3070     0.4820 ca         0 152      -0.097500
     11 C8          -7.8260     1.4430     0.3040 ca         0 152      -0.226550
     12 C9          -6.4940     1.3060    -0.0380 ca         0 152       0.380350
     13 C10         -5.6480     2.5370    -0.2350 c3         0 152       0.081100
     14 O2          -4.2710     2.2090    -0.0450 os         0 152      -0.419100
     15 C11         -3.5110     3.2590    -0.6480 c3         0 152       0.124400
     16 C12         -2.3210     3.6080     0.2490 c3         0 152       0.113900
     17 O3          -1.6190     4.7230    -0.3050 os         0 152      -0.431600
     18 C13         -0.4300     4.8880     0.4710 c3         0 152       0.112900
     19 C14          0.7870     4.9040    -0.4570 c3         0 152       0.112900
     20 O4           1.9780     4.7430     0.3160 os         0 152      -0.431600
     21 C15          2.5980     3.5350    -0.1280 c3         0 152       0.113900
     22 C16          4.0150     3.4500     0.4440 c3         0 152       0.124400
     23 O5           4.5820     2.1760     0.1280 os         0 152      -0.419100
     24 C17          5.9990     2.3540     0.0990 c3         0 152       0.081100
     25 C18          6.6760     1.0110    -0.0000 ca         0 152       0.380350
     26 N            5.9850    -0.0870     0.2340 nb         0 152      -0.660000
     27 C19          6.5370    -1.2830     0.1600 ca         0 152       0.380350
     28 C20          5.7050    -2.5080     0.4400 c3         0 152       0.081100
     29 O6           4.3920    -2.3290    -0.0940 os         0 152      -0.419100
     30 C21          3.7220    -3.5850     0.0320 c3         0 152       0.124400
     31 C22          2.2160    -3.3800    -0.1410 c3         0 152       0.113900
     32 O7           1.5210    -4.5350     0.3320 os         0 152      -0.431600
     33 C23          7.8710    -1.4260    -0.1710 ca         0 152      -0.226550
     34 C24          8.6300    -0.2940    -0.4250 ca         0 152      -0.097500
     35 C25          8.0150     0.9460    -0.3360 ca         0 152      -0.226550
     36 N1          -5.9580     0.1110    -0.1950 nb         0 152      -0.660000
     37 H            0.4430    -5.4080    -1.1990 h1         0 152       0.049325
     38 H1           0.1120    -3.6830    -0.9150 h1         0 152       0.049325
     39 H2          -0.7310    -6.0490     0.8080 h1         0 152       0.049325
     40 H3          -0.8430    -4.3590     1.3550 h1         0 152       0.049325
     41 H4          -2.7330    -3.5980     1.2680 h1         0 152       0.046700
     42 H5          -1.9910    -2.8050    -0.1420 h1         0 152       0.046700
     43 H6          -3.9240    -3.4570    -1.5390 h1         0 152       0.054200
     44 H7          -4.6630    -4.2790    -0.1440 h1         0 152       0.054200
     45 H8          -6.2040    -2.6920    -1.2390 h1         0 152       0.061950
     46 H9          -6.4170    -3.0440     0.4920 h1         0 152       0.061950
     47 H10         -8.5740    -1.8380     0.4370 ha         0 152       0.149000
     48 H11         -9.6430     0.3840     0.7500 ha         0 152       0.139000
     49 H12         -8.2590     2.4250     0.4320 ha         0 152       0.149000
     50 H13         -5.7940     2.9200    -1.2450 h1         0 152       0.061950
     51 H14         -5.9430     3.2980     0.4880 h1         0 152       0.061950
     52 H15         -3.1480     2.9310    -1.6220 h1         0 152       0.054200
     53 H16         -4.1430     4.1390    -0.7730 h1         0 152       0.054200
     54 H17         -2.6810     3.8640     1.2460 h1         0 152       0.046700
     55 H18         -1.6510     2.7520     0.3130 h1         0 152       0.046700
     56 H19         -0.4810     5.8280     1.0190 h1         0 152       0.049325
     57 H20         -0.3380     4.0610     1.1750 h1         0 152       0.049325
     58 H21          0.7070     4.0880    -1.1760 h1         0 152       0.049325
     59 H22          0.8250     5.8540    -0.9900 h1         0 152       0.049325
     60 H23          2.0160     2.6800     0.2150 h1         0 152       0.046700
     61 H24          2.6450     3.5290    -1.2170 h1         0 152       0.046700
     62 H25          4.6290     4.2390     0.0110 h1         0 152       0.054200
     63 H26          3.9770     3.5720     1.5260 h1         0 152       0.054200
     64 H27          6.2710     2.9620    -0.7650 h1         0 152       0.061950
     65 H28          6.3210     2.8560     1.0110 h1         0 152       0.061950
     66 H29          6.1710    -3.3760    -0.0250 h1         0 152       0.061950
     67 H30          5.6410    -2.6640     1.5170 h1         0 152       0.061950
     68 H31          4.0860    -4.2690    -0.7350 h1         0 152       0.054200
     69 H32          3.9210    -4.0060     1.0170 h1         0 152       0.054200
     70 H33          1.9000    -2.5070     0.4300 h1         0 152       0.046700
     71 H34          1.9890    -3.2270    -1.1960 h1         0 152       0.046700
     72 H35          8.3170    -2.4080    -0.2310 ha         0 152       0.149000
     73 H36          9.6750    -0.3750    -0.6860 ha         0 152       0.139000
     74 H37          8.5750     1.8490    -0.5280 ha         0 152       0.149000
@<TRIPOS>BOND
     1     1     2 1   
     2     1    32 1   
     3     1    37 1   
     4     1    38 1   
     5     2     3 1   
     6     2    39 1   
     7     2    40 1   
     8     3     4 1   
     9     4     5 1   
    10     4    41 1   
    11     4    42 1   
    12     5     6 1   
    13     5    43 1   
    14     5    44 1   
    15     6     7 1   
    16     7     8 1   
    17     7    45 1   
    18     7    46 1   
    19     8     9 ar  
    20     8    36 ar  
    21     9    10 ar  
    22     9    47 1   
    23    10    11 ar  
    24    10    48 1   
    25    11    12 ar  
    26    11    49 1   
    27    12    13 1   
    28    12    36 ar  
    29    13    14 1   
    30    13    50 1   
    31    13    51 1   
    32    14    15 1   
    33    15    16 1   
    34    15    52 1   
    35    15    53 1   
    36    16    17 1   
    37    16    54 1   
    38    16    55 1   
    39    17    18 1   
    40    18    19 1   
    41    18    56 1   
    42    18    57 1   
    43    19    20 1   
    44    19    58 1   
    45    19    59 1   
    46    20    21 1   
    47    21    22 1   
    48    21    60 1   
    49    21    61 1   
    50    22    23 1   
    51    22    62 1   
    52    22    63 1   
    53    23    24 1   
    54    24    25 1   
    55    24    64 1   
    56    24    65 1   
    57    25    26 ar  
    58    25    35 ar  
    59    26    27 ar  
    60    27    28 1   
    61    27    33 ar  
    62    28    29 1   
    63    28    66 1   
    64    28    67 1   
    65    29    30 1   
    66    30    31 1   
    67    30    68 1   
    68    30    69 1   
    69    31    32 1   
    70    31    70 1   
    71    31    71 1   
    72    33    34 ar  
    73    33    72 1   
    74    34    35 ar  
    75    34    73 1   
    76    35    74 1   
@<TRIPOS>SUBSTRUCTURE
     1 152         1 TEMP              0 ****  ****    0 ROOT
