@<TRIPOS>MOLECULE
DCB
  176   180     1     0     0
SMALL
bcc


@<TRIPOS>ATOM
      1 N1           5.6880    -2.1820    -0.9310 n3         1 DCB      -0.908300
      2 C1           6.4300    -2.7170    -2.1050 c3         1 DCB       0.115500
      3 C2           7.1820    -3.9880    -1.7160 c3         1 DCB      -0.135400
      4 C3           8.1480    -4.3790    -2.7970 c          1 DCB       0.646600
      5 O1           8.8960    -3.6310    -3.4070 o          1 DCB      -0.576500
      6 O2           8.1370    -5.7050    -3.0340 oh         1 DCB      -0.594100
      7 C4           5.4570    -3.0150    -3.2770 c          1 DCB       0.640600
      8 O3           5.7680    -3.7380    -4.2190 o          1 DCB      -0.627600
      9 N2           4.2520    -2.3550    -3.2240 n          1 DCB      -0.559400
     10 C5           3.3250    -2.2650    -4.3640 c3         1 DCB       0.057700
     11 C6           2.7930    -3.6220    -4.8570 c3         1 DCB      -0.096800
     12 S1           1.8430    -4.4450    -3.5180 ss         1 DCB       0.087900
     13 S2           2.2040    -6.4350    -3.8660 ss         1 DCB      -0.260100
     14 C7           3.8650    -6.6850    -3.1440 c3         1 DCB      -0.077300
     15 C8           3.8030    -7.7960    -2.1170 c          1 DCB       0.682600
     16 O4           4.1930    -8.9340    -2.4100 o          1 DCB      -0.569100
     17 N3           3.2550    -7.6420    -0.8760 n          1 DCB      -0.474100
     18 C9           2.8170    -6.5390    -0.1220 ca         1 DCB      -0.039200
     19 C10          1.9290    -6.7850     0.9240 ca         1 DCB       0.363200
     20 N4           1.4380    -5.8380     1.7570 nb         1 DCB      -0.634500
     21 C11          1.8610    -4.5690     1.5540 ca         1 DCB       0.370700
     22 C12          2.7370    -4.1980     0.5410 ca         1 DCB      -0.060200
     23 C13          3.2410    -5.2190    -0.2800 ca         1 DCB      -0.152500
     24 N5           3.2170    -2.8940     0.3220 n          1 DCB      -0.461600
     25 C14          2.7290    -1.6620     0.6560 c          1 DCB       0.688100
     26 O5           3.4800    -0.6870     0.5130 o          1 DCB      -0.630600
     27 C15          1.2830    -1.4770     1.0880 c3         1 DCB      -0.110300
     28 S3           0.5500    -0.1080     0.1050 ss         1 DCB      -0.191600
     29 S4           0.0240    -1.0260    -1.6540 ss         1 DCB      -0.127600
     30 C16         -1.7710    -1.3710    -1.4510 c3         1 DCB      -0.067300
     31 C17         -2.1250    -2.4370    -0.4060 c3         1 DCB       0.061700
     32 C18         -2.5290    -1.8570     0.9700 c          1 DCB       0.654600
     33 O6          -2.3570    -0.6900     1.3110 o          1 DCB      -0.629600
     34 N6          -2.9900    -2.8080     1.8660 n          1 DCB      -0.554900
     35 C19         -3.0680    -2.4870     3.2990 c3         1 DCB       0.052200
     36 C20         -4.0250    -3.4460     4.0000 c3         1 DCB      -0.144400
     37 C21         -4.4870    -2.8400     5.2910 c          1 DCB       0.645100
     38 O7          -3.9360    -1.9160     5.8720 o          1 DCB      -0.569000
     39 O8          -5.5720    -3.4490     5.7930 oh         1 DCB      -0.589100
     40 C22         -1.6420    -2.6000     3.8750 c          1 DCB       0.618600
     41 O9          -0.7140    -3.1330     3.2770 o          1 DCB      -0.539000
     42 O10         -1.4810    -2.0660     5.1050 oh         1 DCB      -0.579100
     43 N7          -3.1290    -3.4170    -0.8670 n          1 DCB      -0.572400
     44 C23         -4.4090    -3.2080    -1.3170 c          1 DCB       0.675200
     45 O11         -5.0400    -4.1210    -1.8370 o          1 DCB      -0.592100
     46 C24         -5.0360    -1.8840    -1.1800 ca         1 DCB      -0.158100
     47 C25         -5.7480    -1.5660    -0.0230 ca         1 DCB      -0.075500
     48 C26         -6.3570    -0.3100     0.0940 ca         1 DCB      -0.168250
     49 C27         -6.2510     0.6240    -0.9390 ca         1 DCB       0.073100
     50 C28         -5.5490     0.2830    -2.1030 ca         1 DCB      -0.168250
     51 C29         -4.9650    -0.9780    -2.2380 ca         1 DCB      -0.075500
     52 N8          -6.7900     1.9210    -0.8800 n          1 DCB      -0.477100
     53 C30         -7.6660     2.4450     0.0600 c          1 DCB       0.645600
     54 O12         -8.2410     1.8120     0.9420 o          1 DCB      -0.580600
     55 C31         -7.8540     3.9750    -0.1050 c3         1 DCB       0.057700
     56 N9          -8.5230     4.2850    -1.3790 n          1 DCB      -0.559400
     57 C32         -7.8710     4.3490    -2.5820 c          1 DCB       0.640600
     58 O13         -6.6950     4.0000    -2.7010 o          1 DCB      -0.627600
     59 C33         -8.7210     4.8600    -3.7710 c3         1 DCB       0.115500
     60 N10         -8.0240     4.5210    -5.0350 n3         1 DCB      -0.908300
     61 C34         -8.9010     6.3760    -3.6780 c3         1 DCB      -0.135400
     62 C35         -9.9850     6.7350    -2.6970 c          1 DCB       0.646600
     63 O14        -10.6230     5.9660    -1.9930 o          1 DCB      -0.576500
     64 O15        -10.1890     8.0650    -2.6340 oh         1 DCB      -0.594100
     65 C36         -8.6330     4.5480     1.0880 c3         1 DCB      -0.096800
     66 S5          -8.6290     6.3890     1.0840 ss         1 DCB       0.087900
     67 S6          -7.3080     6.8900     2.5860 ss         1 DCB      -0.260100
     68 C37         -5.7030     6.9690     1.7260 c3         1 DCB      -0.077300
     69 C38         -4.5790     7.1000     2.7430 c          1 DCB       0.682600
     70 O16         -4.3060     8.2020     3.2340 o          1 DCB      -0.569100
     71 N11         -3.7830     6.0450     3.1020 n          1 DCB      -0.474100
     72 C39         -3.8630     4.6610     2.8600 ca         1 DCB      -0.039200
     73 C40         -5.0150     3.9870     2.4900 ca         1 DCB       0.363200
     74 N12         -5.0690     2.6800     2.1690 nb         1 DCB      -0.634500
     75 C41         -3.9170     1.9860     2.2930 ca         1 DCB       0.370700
     76 C42         -2.7180     2.5190     2.7660 ca         1 DCB      -0.060200
     77 C43         -2.7050     3.8890     3.0350 ca         1 DCB      -0.152500
     78 N13         -1.6240     1.6400     2.8860 n          1 DCB      -0.461600
     79 C44         -0.4570     1.6690     3.5960 c          1 DCB       0.688100
     80 O17          0.3350     0.7340     3.4250 o          1 DCB      -0.630600
     81 C45         -0.1490     2.7350     4.6250 c3         1 DCB      -0.110300
     82 S7           0.9800     3.9980     3.9530 ss         1 DCB      -0.191600
     83 S8           2.8590     3.1880     4.2350 ss         1 DCB      -0.127600
     84 C46          3.0770     2.1310     2.7540 c3         1 DCB      -0.067300
     85 C47          4.4240     2.3800     2.0620 c3         1 DCB       0.061700
     86 C48          5.5820     1.6000     2.7260 c          1 DCB       0.654600
     87 O18          5.4270     0.6490     3.4870 o          1 DCB      -0.629600
     88 N14          6.8360     2.0160     2.3060 n          1 DCB      -0.554900
     89 C49          8.0600     1.2640     2.6080 c3         1 DCB       0.052200
     90 C50          8.2800     1.0760     4.1100 c3         1 DCB      -0.144400
     91 C51          9.7500     1.0120     4.4210 c          1 DCB       0.645100
     92 O19         10.6750     1.3580     3.7030 o          1 DCB      -0.569000
     93 O20          9.9930     0.5500     5.6640 oh         1 DCB      -0.589100
     94 C52          8.0620    -0.0720     1.8400 c          1 DCB       0.618600
     95 O21          7.4370    -0.3440     0.8220 o          1 DCB      -0.539000
     96 O22          8.9390    -0.9760     2.3380 oh         1 DCB      -0.579100
     97 N15          4.3460     1.9220     0.6670 n          1 DCB      -0.572400
     98 C53          5.1660     2.4130    -0.3200 c          1 DCB       0.675200
     99 O23          6.0460     3.2450    -0.1200 o          1 DCB      -0.592100
    100 C54          4.9970     1.7940    -1.6580 ca         1 DCB      -0.158100
    101 C55          3.7430     1.3500    -2.0830 ca         1 DCB      -0.075500
    102 C56          3.6160     0.6880    -3.3030 ca         1 DCB      -0.168250
    103 C57          4.7380     0.4570    -4.0990 ca         1 DCB       0.073100
    104 C58          5.9700     1.0030    -3.7300 ca         1 DCB      -0.168250
    105 C59          6.1040     1.6590    -2.5020 ca         1 DCB      -0.075500
    106 N16          4.6720    -0.3040    -5.2740 n          1 DCB      -0.477100
    107 C60          3.9590    -1.4560    -5.5310 c          1 DCB       0.645600
    108 O24          3.8180    -1.7930    -6.7090 o          1 DCB      -0.580600
    109 H1           6.3610    -2.0570    -0.1560 hn         1 DCB       0.375050
    110 H2           5.4670    -1.1920    -1.1210 hn         1 DCB       0.375050
    111 H3           7.1250    -1.9400    -2.4490 h1         1 DCB       0.081700
    112 H4           7.7650    -3.8520    -0.8000 hc         1 DCB       0.107450
    113 H5           6.4780    -4.8090    -1.5440 hc         1 DCB       0.107450
    114 H6           8.7020    -5.8180    -3.8280 ho         1 DCB       0.452000
    115 H7           4.0590    -1.8100    -2.3920 hn         1 DCB       0.343000
    116 H8           2.4600    -1.6880    -4.0220 h1         1 DCB       0.085700
    117 H9           3.6080    -4.2660    -5.1990 h1         1 DCB       0.120950
    118 H10          2.1120    -3.4760    -5.7040 h1         1 DCB       0.120950
    119 H11          4.5220    -7.0200    -3.9550 h1         1 DCB       0.102200
    120 H12          4.3220    -5.7820    -2.7510 h1         1 DCB       0.102200
    121 H13          3.1080    -8.5550    -0.4520 hn         1 DCB       0.333500
    122 H14          1.5620    -7.7880     1.1290 h4         1 DCB       0.042100
    123 H15          1.5000    -3.8700     2.3020 h4         1 DCB       0.042600
    124 H16          3.9820    -4.9520    -1.0180 ha         1 DCB       0.161500
    125 H17          4.1200    -2.8170    -0.1580 hn         1 DCB       0.340000
    126 H18          1.2790    -1.2190     2.1500 h1         1 DCB       0.113200
    127 H19          0.6680    -2.3600     0.9350 h1         1 DCB       0.113200
    128 H20         -2.2760    -0.4180    -1.2610 h1         1 DCB       0.106450
    129 H21         -2.0860    -1.7080    -2.4440 h1         1 DCB       0.106450
    130 H22         -1.2410    -3.0580    -0.2150 h1         1 DCB       0.107200
    131 H23         -2.7650    -3.7690     1.6240 hn         1 DCB       0.350000
    132 H24         -3.3910    -1.4420     3.3890 h1         1 DCB       0.116200
    133 H25         -3.5490    -4.4100     4.2100 hc         1 DCB       0.111450
    134 H26         -4.9090    -3.6130     3.3720 hc         1 DCB       0.111450
    135 H27         -5.7880    -2.9980     6.6370 ho         1 DCB       0.453500
    136 H28         -2.2930    -1.6830     5.5150 ho         1 DCB       0.454500
    137 H29         -2.7880    -4.3370    -1.1320 hn         1 DCB       0.339000
    138 H30         -5.8430    -2.2900     0.7820 ha         1 DCB       0.152000
    139 H31         -6.8880    -0.0760     1.0120 ha         1 DCB       0.161750
    140 H32         -5.4670     0.9910    -2.9250 ha         1 DCB       0.161750
    141 H33         -4.4600    -1.2450    -3.1620 ha         1 DCB       0.152000
    142 H34         -6.5240     2.5560    -1.6330 hn         1 DCB       0.343000
    143 H35         -6.8460     4.4120    -0.1350 h1         1 DCB       0.085700
    144 H36         -9.5100     4.5500    -1.3470 hn         1 DCB       0.343000
    145 H37         -9.6830     4.3350    -3.7680 h1         1 DCB       0.081700
    146 H38         -7.9540     3.5030    -5.1060 hn         1 DCB       0.375050
    147 H39         -7.0510     4.8300    -4.9570 hn         1 DCB       0.375050
    148 H40         -7.9700     6.8660    -3.3620 hc         1 DCB       0.107450
    149 H41         -9.2080     6.7800    -4.6520 hc         1 DCB       0.107450
    150 H42        -10.8870     8.1930    -1.9560 ho         1 DCB       0.452000
    151 H43         -8.2460     4.1790     2.0460 h1         1 DCB       0.120950
    152 H44         -9.6810     4.2340     1.0350 h1         1 DCB       0.120950
    153 H45         -5.5370     6.1190     1.0610 h1         1 DCB       0.102200
    154 H46         -5.6840     7.8680     1.1000 h1         1 DCB       0.102200
    155 H47         -2.9770     6.3700     3.6280 hn         1 DCB       0.333500
    156 H48         -5.9810     4.4620     2.4650 h4         1 DCB       0.042100
    157 H49         -4.0100     0.9360     2.0300 h4         1 DCB       0.042600
    158 H50         -1.7890     4.3950     3.3090 ha         1 DCB       0.161500
    159 H51         -1.7110     0.7630     2.3600 hn         1 DCB       0.340000
    160 H52         -1.0620     3.2060     4.9940 h1         1 DCB       0.113200
    161 H53          0.3000     2.2560     5.5020 h1         1 DCB       0.113200
    162 H54          2.9710     1.0830     3.0630 h1         1 DCB       0.106450
    163 H55          2.2650     2.3410     2.0470 h1         1 DCB       0.106450
    164 H56          4.6670     3.4480     2.0480 h1         1 DCB       0.107200
    165 H57          6.8430     2.5810     1.4530 hn         1 DCB       0.350000
    166 H58          8.8640     1.8650     2.1640 h1         1 DCB       0.116200
    167 H59          7.8710     1.9240     4.6720 hc         1 DCB       0.111450
    168 H60          7.8070     0.1520     4.4690 hc         1 DCB       0.111450
    169 H61         10.9690     0.5890     5.7480 ho         1 DCB       0.453500
    170 H62          8.8820    -1.7360     1.7220 ho         1 DCB       0.454500
    171 H63          3.9870     0.9710     0.5390 hn         1 DCB       0.339000
    172 H64          2.8590     1.5150    -1.4720 ha         1 DCB       0.152000
    173 H65          2.6220     0.3910    -3.6250 ha         1 DCB       0.161750
    174 H66          6.8490     0.8710    -4.3560 ha         1 DCB       0.161750
    175 H67          7.0760     2.0390    -2.1940 ha         1 DCB       0.152000
    176 H68          5.3120    -0.0720    -6.0270 hn         1 DCB       0.343000
@<TRIPOS>BOND
     1     1     2 1   
     2     1   109 1   
     3     1   110 1   
     4     2     3 1   
     5     2     7 1   
     6     2   111 1   
     7     3     4 1   
     8     3   112 1   
     9     3   113 1   
    10     4     5 2   
    11     4     6 1   
    12     6   114 1   
    13     7     8 2   
    14     7     9 1   
    15     9    10 1   
    16     9   115 1   
    17    10    11 1   
    18    10   107 1   
    19    10   116 1   
    20    11    12 1   
    21    11   117 1   
    22    11   118 1   
    23    12    13 1   
    24    13    14 1   
    25    14    15 1   
    26    14   119 1   
    27    14   120 1   
    28    15    16 2   
    29    15    17 1   
    30    17    18 1   
    31    17   121 1   
    32    18    19 ar  
    33    18    23 ar  
    34    19    20 ar  
    35    19   122 1   
    36    20    21 ar  
    37    21    22 ar  
    38    21   123 1   
    39    22    23 ar  
    40    22    24 1   
    41    23   124 1   
    42    24    25 1   
    43    24   125 1   
    44    25    26 2   
    45    25    27 1   
    46    27    28 1   
    47    27   126 1   
    48    27   127 1   
    49    28    29 1   
    50    29    30 1   
    51    30    31 1   
    52    30   128 1   
    53    30   129 1   
    54    31    32 1   
    55    31    43 1   
    56    31   130 1   
    57    32    33 2   
    58    32    34 1   
    59    34    35 1   
    60    34   131 1   
    61    35    36 1   
    62    35    40 1   
    63    35   132 1   
    64    36    37 1   
    65    36   133 1   
    66    36   134 1   
    67    37    38 2   
    68    37    39 1   
    69    39   135 1   
    70    40    41 2   
    71    40    42 1   
    72    42   136 1   
    73    43    44 1   
    74    43   137 1   
    75    44    45 2   
    76    44    46 1   
    77    46    47 ar  
    78    46    51 ar  
    79    47    48 ar  
    80    47   138 1   
    81    48    49 ar  
    82    48   139 1   
    83    49    50 ar  
    84    49    52 1   
    85    50    51 ar  
    86    50   140 1   
    87    51   141 1   
    88    52    53 1   
    89    52   142 1   
    90    53    54 2   
    91    53    55 1   
    92    55    56 1   
    93    55    65 1   
    94    55   143 1   
    95    56    57 1   
    96    56   144 1   
    97    57    58 2   
    98    57    59 1   
    99    59    60 1   
   100    59    61 1   
   101    59   145 1   
   102    60   146 1   
   103    60   147 1   
   104    61    62 1   
   105    61   148 1   
   106    61   149 1   
   107    62    63 2   
   108    62    64 1   
   109    64   150 1   
   110    65    66 1   
   111    65   151 1   
   112    65   152 1   
   113    66    67 1   
   114    67    68 1   
   115    68    69 1   
   116    68   153 1   
   117    68   154 1   
   118    69    70 2   
   119    69    71 1   
   120    71    72 1   
   121    71   155 1   
   122    72    73 ar  
   123    72    77 ar  
   124    73    74 ar  
   125    73   156 1   
   126    74    75 ar  
   127    75    76 ar  
   128    75   157 1   
   129    76    77 ar  
   130    76    78 1   
   131    77   158 1   
   132    78    79 1   
   133    78   159 1   
   134    79    80 2   
   135    79    81 1   
   136    81    82 1   
   137    81   160 1   
   138    81   161 1   
   139    82    83 1   
   140    83    84 1   
   141    84    85 1   
   142    84   162 1   
   143    84   163 1   
   144    85    86 1   
   145    85    97 1   
   146    85   164 1   
   147    86    87 2   
   148    86    88 1   
   149    88    89 1   
   150    88   165 1   
   151    89    90 1   
   152    89    94 1   
   153    89   166 1   
   154    90    91 1   
   155    90   167 1   
   156    90   168 1   
   157    91    92 2   
   158    91    93 1   
   159    93   169 1   
   160    94    95 2   
   161    94    96 1   
   162    96   170 1   
   163    97    98 1   
   164    97   171 1   
   165    98    99 2   
   166    98   100 1   
   167   100   101 ar  
   168   100   105 ar  
   169   101   102 ar  
   170   101   172 1   
   171   102   103 ar  
   172   102   173 1   
   173   103   104 ar  
   174   103   106 1   
   175   104   105 ar  
   176   104   174 1   
   177   105   175 1   
   178   106   107 1   
   179   106   176 1   
   180   107   108 2   
@<TRIPOS>SUBSTRUCTURE
     1 DCB         1 TEMP              0 ****  ****    0 ROOT
