@<TRIPOS>MOLECULE
119
   90    96     1     0     0
SMALL
bcc


@<TRIPOS>ATOM
      1 O           10.9400    -0.2470    -0.6030 oh         0 119      -0.495100
      2 C            9.5890    -0.1850    -0.4550 ca         0 119       0.108100
      3 C1           8.8550     0.7440    -1.1770 ca         0 119      -0.167000
      4 C2           7.4830     0.8080    -1.0270 ca         0 119      -0.119000
      5 C3           6.8400    -0.0590    -0.1540 ca         0 119       0.110600
      6 C4           7.5760    -0.9890     0.5680 ca         0 119      -0.119000
      7 C5           8.9470    -1.0550     0.4140 ca         0 119      -0.167000
      8 N            5.4490     0.0050    -0.0010 nh         0 119      -0.441300
      9 C6           4.6640    -1.1550     0.1240 ca         0 119       0.155350
     10 C7           4.9950    -2.2920    -0.6030 ca         0 119      -0.158875
     11 C8           4.2140    -3.4260    -0.5190 ca         0 119      -0.101625
     12 C9           3.0990    -3.4310     0.2970 ca         0 119      -0.142550
     13 C10          2.2320    -4.6580     0.3810 c3         0 119       0.129800
     14 N1           1.0530    -4.4610    -0.4900 n          0 119      -0.546900
     15 C11         -0.1450    -4.7670     0.0890 c          0 119       0.741100
     16 O1          -0.2080    -5.1570     1.2390 o          0 119      -0.633600
     17 N2          -1.2680    -4.6190    -0.6690 n          0 119      -0.546900
     18 C12         -2.5480    -4.9070     0.0200 c3         0 119       0.129800
     19 C13         -3.3520    -3.6310     0.0420 ca         0 119      -0.142550
     20 C14         -3.3500    -2.8400     1.1750 ca         0 119      -0.101625
     21 C15         -4.0690    -1.6610     1.1820 ca         0 119      -0.158875
     22 C16         -4.7850    -1.2630     0.0610 ca         0 119       0.155350
     23 C17         -4.8160    -2.0870    -1.0640 ca         0 119      -0.158875
     24 C18         -4.0920    -3.2630    -1.0630 ca         0 119      -0.101625
     25 N3          -5.4190    -0.0160     0.0180 nh         0 119      -0.441300
     26 C19         -6.8070     0.0620    -0.1450 ca         0 119       0.110600
     27 C20         -7.5450    -1.0900    -0.3890 ca         0 119      -0.119000
     28 C21         -8.9140    -1.0110    -0.5490 ca         0 119      -0.167000
     29 C22         -9.5530     0.2170    -0.4690 ca         0 119       0.108100
     30 O2         -10.9010     0.2940    -0.6280 oh         0 119      -0.495100
     31 C23         -8.8180     1.3680    -0.2250 ca         0 119      -0.167000
     32 C24         -7.4490     1.2910    -0.0590 ca         0 119      -0.119000
     33 C25         -4.6560     1.1530     0.1410 ca         0 119       0.155350
     34 C26         -4.8540     2.2110    -0.7350 ca         0 119      -0.158875
     35 C27         -4.0770     3.3440    -0.6460 ca         0 119      -0.101625
     36 C28         -3.1120     3.4400     0.3350 ca         0 119      -0.142550
     37 C29         -2.2490     4.6700     0.4200 c3         0 119       0.129800
     38 N4          -1.0630     4.4720    -0.4440 n          0 119      -0.546900
     39 C30          0.1320     4.7630     0.1510 c          0 119       0.741100
     40 O3           0.1910     5.1290     1.3080 o          0 119      -0.633600
     41 N5           1.2550     4.6250    -0.6110 n          0 119      -0.546900
     42 C31          2.5320     4.8790     0.0920 c3         0 119       0.129800
     43 C32          3.3330     3.6010     0.0750 ca         0 119      -0.142550
     44 C33          3.4250     2.8350     1.2220 ca         0 119      -0.101625
     45 C34          4.1370     1.6500     1.2040 ca         0 119      -0.158875
     46 C35          4.7630     1.2350     0.0410 ca         0 119       0.155350
     47 C36          4.6930     2.0260    -1.1000 ca         0 119      -0.158875
     48 C37          3.9760     3.2020    -1.0800 ca         0 119      -0.101625
     49 C38         -2.9280     2.4050     1.2380 ca         0 119      -0.101625
     50 C39         -3.6960     1.2550     1.1460 ca         0 119      -0.158875
     51 C40          2.7620    -2.3030     1.0260 ca         0 119      -0.101625
     52 C41          3.5410    -1.1620     0.9440 ca         0 119      -0.158875
     53 H           11.3210     0.3540     0.0520 ho         0 119       0.419000
     54 H1           9.3560     1.4190    -1.8560 ha         0 119       0.145500
     55 H2           6.9120     1.5320    -1.5890 ha         0 119       0.148250
     56 H3           7.0760    -1.6630     1.2480 ha         0 119       0.148250
     57 H4           9.5190    -1.7780     0.9750 ha         0 119       0.145500
     58 H5           5.8690    -2.2880    -1.2370 ha         0 119       0.146500
     59 H6           4.4720    -4.3060    -1.0890 ha         0 119       0.136250
     60 H7           2.7950    -5.5280     0.0440 h1         0 119       0.076950
     61 H8           1.9060    -4.8060     1.4110 h1         0 119       0.076950
     62 H9           1.1250    -4.1390    -1.4020 hn         0 119       0.292500
     63 H10         -1.2320    -4.3430    -1.5980 hn         0 119       0.292500
     64 H11         -3.0940    -5.6790    -0.5210 h1         0 119       0.076950
     65 H12         -2.3520    -5.2380     1.0400 h1         0 119       0.076950
     66 H13         -2.7920    -3.1420     2.0480 ha         0 119       0.136250
     67 H14         -4.0730    -1.0420     2.0680 ha         0 119       0.146500
     68 H15         -5.4000    -1.8070    -1.9280 ha         0 119       0.146500
     69 H16         -4.1050    -3.9010    -1.9350 ha         0 119       0.136250
     70 H17         -7.0470    -2.0460    -0.4520 ha         0 119       0.148250
     71 H18         -9.4870    -1.9070    -0.7390 ha         0 119       0.145500
     72 H19        -11.2930     0.1900     0.2510 ho         0 119       0.419000
     73 H20         -9.3160     2.3240    -0.1620 ha         0 119       0.145500
     74 H21         -6.8760     2.1870     0.1310 ha         0 119       0.148250
     75 H22         -5.6240     2.1460    -1.4900 ha         0 119       0.146500
     76 H23         -4.2230     4.1560    -1.3440 ha         0 119       0.136250
     77 H24         -2.8120     5.5370     0.0760 h1         0 119       0.076950
     78 H25         -1.9290     4.8230     1.4510 h1         0 119       0.076950
     79 H26         -1.1300     4.1600    -1.3600 hn         0 119       0.292500
     80 H27          1.2200     4.3780    -1.5480 hn         0 119       0.292500
     81 H28          3.0850     5.6670    -0.4200 h1         0 119       0.076950
     82 H29          2.3340     5.1760     1.1220 h1         0 119       0.076950
     83 H30          2.9410     3.1610     2.1310 ha         0 119       0.136250
     84 H31          4.2060     1.0480     2.0980 ha         0 119       0.146500
     85 H32          5.1980     1.7180    -2.0040 ha         0 119       0.146500
     86 H33          3.9200     3.8140    -1.9680 ha         0 119       0.136250
     87 H34         -2.1850     2.4950     2.0170 ha         0 119       0.136250
     88 H35         -3.5510     0.4450     1.8460 ha         0 119       0.146500
     89 H36          1.8880    -2.3140     1.6600 ha         0 119       0.136250
     90 H37          3.2780    -0.2830     1.5130 ha         0 119       0.146500
@<TRIPOS>BOND
     1     1     2 1   
     2     1    53 1   
     3     2     3 ar  
     4     2     7 ar  
     5     3     4 ar  
     6     3    54 1   
     7     4     5 ar  
     8     4    55 1   
     9     5     6 ar  
    10     5     8 1   
    11     6     7 ar  
    12     6    56 1   
    13     7    57 1   
    14     8     9 1   
    15     8    46 1   
    16     9    10 ar  
    17     9    52 ar  
    18    10    11 ar  
    19    10    58 1   
    20    11    12 ar  
    21    11    59 1   
    22    12    13 1   
    23    12    51 ar  
    24    13    14 1   
    25    13    60 1   
    26    13    61 1   
    27    14    15 1   
    28    14    62 1   
    29    15    16 2   
    30    15    17 1   
    31    17    18 1   
    32    17    63 1   
    33    18    19 1   
    34    18    64 1   
    35    18    65 1   
    36    19    20 ar  
    37    19    24 ar  
    38    20    21 ar  
    39    20    66 1   
    40    21    22 ar  
    41    21    67 1   
    42    22    23 ar  
    43    22    25 1   
    44    23    24 ar  
    45    23    68 1   
    46    24    69 1   
    47    25    26 1   
    48    25    33 1   
    49    26    27 ar  
    50    26    32 ar  
    51    27    28 ar  
    52    27    70 1   
    53    28    29 ar  
    54    28    71 1   
    55    29    30 1   
    56    29    31 ar  
    57    30    72 1   
    58    31    32 ar  
    59    31    73 1   
    60    32    74 1   
    61    33    34 ar  
    62    33    50 ar  
    63    34    35 ar  
    64    34    75 1   
    65    35    36 ar  
    66    35    76 1   
    67    36    37 1   
    68    36    49 ar  
    69    37    38 1   
    70    37    77 1   
    71    37    78 1   
    72    38    39 1   
    73    38    79 1   
    74    39    40 2   
    75    39    41 1   
    76    41    42 1   
    77    41    80 1   
    78    42    43 1   
    79    42    81 1   
    80    42    82 1   
    81    43    44 ar  
    82    43    48 ar  
    83    44    45 ar  
    84    44    83 1   
    85    45    46 ar  
    86    45    84 1   
    87    46    47 ar  
    88    47    48 ar  
    89    47    85 1   
    90    48    86 1   
    91    49    50 ar  
    92    49    87 1   
    93    50    88 1   
    94    51    52 ar  
    95    51    89 1   
    96    52    90 1   
@<TRIPOS>SUBSTRUCTURE
     1 119         1 TEMP              0 ****  ****    0 ROOT
