@<TRIPOS>MOLECULE
59
   94   100     1     0     0
SMALL
bcc


@<TRIPOS>ATOM
      1 C           -8.6600     0.9850     0.2730 c3         0 59       -0.077900
      2 C1          -8.6390    -0.5220     0.5250 c3         0 59       -0.077900
      3 C2          -7.4800    -1.1610    -0.2420 c3         0 59       -0.091400
      4 C3          -6.1560    -0.5370     0.2130 c3         0 59        0.167000
      5 H           -6.0270    -0.7180     1.2810 h1         0 59        0.054200
      6 N           -5.0500    -1.1530    -0.5270 n3         0 59       -0.823700
      7 C4          -5.1830    -2.6020    -0.3420 c3         0 59        0.216100
      8 C5          -3.8180    -3.2260    -0.2040 ca         0 59       -0.110800
      9 C6          -3.1800    -3.2290     1.0240 ca         0 59       -0.095000
     10 C7          -1.9630    -3.8620     1.1740 ca         0 59       -0.162500
     11 C8          -1.3770    -4.4960     0.0870 ca         0 59        0.107600
     12 O           -0.2690    -5.2390     0.2700 os         0 59       -0.249200
     13 C9           0.8790    -4.5390     0.1870 ca         0 59        0.107600
     14 C10          1.5980    -4.2210     1.3330 ca         0 59       -0.162500
     15 C11          2.8370    -3.6200     1.2310 ca         0 59       -0.095000
     16 C12          3.3550    -3.3220    -0.0160 ca         0 59       -0.110800
     17 C13          4.7500    -2.7810    -0.1500 c3         0 59        0.216100
     18 N1           4.8480    -1.3900     0.2900 n3         0 59       -0.823700
     19 C14          6.1070    -0.8750    -0.2630 c3         0 59        0.167000
     20 H1           6.0890    -0.9680    -1.3540 h1         0 59        0.054200
     21 C15          7.2850    -1.6890     0.2840 c3         0 59       -0.091400
     22 C16          8.5870    -1.1670    -0.3260 c3         0 59       -0.077900
     23 C17          8.7710     0.3070     0.0410 c3         0 59       -0.077900
     24 C18          7.5910     1.1200    -0.4960 c3         0 59       -0.091400
     25 C19          6.2880     0.5960     0.1160 c3         0 59        0.167000
     26 H2           6.3410     0.6900     1.2020 h1         0 59        0.054200
     27 N2           5.1540     1.3800    -0.3890 n3         0 59       -0.823700
     28 C20          5.0860     2.5730     0.4600 c3         0 59        0.216100
     29 C21          3.7360     3.2310     0.3500 ca         0 59       -0.110800
     30 C22          2.9590     3.4010     1.4840 ca         0 59       -0.095000
     31 C23          1.7550     4.0700     1.4080 ca         0 59       -0.162500
     32 C24          1.3210     4.5720     0.1900 ca         0 59        0.107600
     33 O1           0.2080     5.3320     0.1290 os         0 59       -0.249200
     34 C25         -0.9010     4.5860    -0.0720 ca         0 59        0.107600
     35 C26         -1.6360     4.1190     1.0090 ca         0 59       -0.162500
     36 C27         -2.8200     3.4390     0.7990 ca         0 59       -0.095000
     37 C28         -3.2690     3.2160    -0.4880 ca         0 59       -0.110800
     38 C29         -4.5910     2.5420    -0.7330 c3         0 59        0.216100
     39 N3          -4.9170     1.5820     0.3240 n3         0 59       -0.823700
     40 C30         -6.1860     0.9690    -0.0560 c3         0 59        0.167000
     41 H3          -6.3660     1.1360    -1.1220 h1         0 59        0.054200
     42 C31         -7.3360     1.6000     0.7350 c3         0 59       -0.091400
     43 C32         -2.4970     3.6070    -1.5690 ca         0 59       -0.095000
     44 C33         -1.3170     4.2930    -1.3650 ca         0 59       -0.162500
     45 C34          2.0590     4.3320    -0.9600 ca         0 59       -0.162500
     46 C35          3.2660     3.6660    -0.8770 ca         0 59       -0.095000
     47 C36          2.5920    -3.5330    -1.1510 ca         0 59       -0.095000
     48 C37          1.3580    -4.1410    -1.0550 ca         0 59       -0.162500
     49 C38         -1.9710    -4.4100    -1.1650 ca         0 59       -0.162500
     50 C39         -3.1940    -3.7830    -1.3070 ca         0 59       -0.095000
     51 H4          -8.7970     1.1730    -0.7910 hc         0 59        0.041700
     52 H5          -9.4830     1.4340     0.8300 hc         0 59        0.041700
     53 H6          -8.5140    -0.7100     1.5910 hc         0 59        0.041700
     54 H7          -9.5790    -0.9590     0.1900 hc         0 59        0.041700
     55 H8          -7.4620    -2.2330    -0.0460 hc         0 59        0.045700
     56 H9          -7.6140    -0.9900    -1.3100 hc         0 59        0.045700
     57 H10         -5.2170    -0.9690    -1.5050 hn         0 59        0.367300
     58 H11         -5.7650    -2.8000     0.5580 h1         0 59        0.037200
     59 H12         -5.6930    -3.0320    -1.2040 h1         0 59        0.037200
     60 H13         -3.6370    -2.7340     1.8690 ha         0 59        0.141500
     61 H14         -1.4680    -3.8640     2.1340 ha         0 59        0.149500
     62 H15          1.1860    -4.4440     2.3060 ha         0 59        0.149500
     63 H16          3.4000    -3.3840     2.1220 ha         0 59        0.141500
     64 H17          5.4250    -3.3900     0.4500 h1         0 59        0.037200
     65 H18          5.0550    -2.8430    -1.1950 h1         0 59        0.037200
     66 H19          4.1030    -0.8870    -0.1690 hn         0 59        0.367300
     67 H20          7.3250    -1.5880     1.3680 hc         0 59        0.045700
     68 H21          7.1550    -2.7390     0.0200 hc         0 59        0.045700
     69 H22          9.4260    -1.7450     0.0620 hc         0 59        0.041700
     70 H23          8.5470    -1.2690    -1.4100 hc         0 59        0.041700
     71 H24          8.8180     0.4080     1.1250 hc         0 59        0.041700
     72 H25          9.6970     0.6770    -0.3990 hc         0 59        0.041700
     73 H26          7.7220     2.1690    -0.2290 hc         0 59        0.045700
     74 H27          7.5470     1.0240    -1.5810 hc         0 59        0.045700
     75 H28          5.4080     1.6960    -1.3130 hn         0 59        0.367300
     76 H29          5.2610     2.2860     1.4970 h1         0 59        0.037200
     77 H30          5.8560     3.2790     0.1490 h1         0 59        0.037200
     78 H31          3.2970     3.0080     2.4310 ha         0 59        0.141500
     79 H32          1.1520     4.2010     2.2940 ha         0 59        0.149500
     80 H33         -1.2810     4.2860     2.0150 ha         0 59        0.149500
     81 H34         -3.3950     3.0830     1.6410 ha         0 59        0.141500
     82 H35         -5.3730     3.3000    -0.7770 h1         0 59        0.037200
     83 H36         -4.5520     2.0190    -1.6880 h1         0 59        0.037200
     84 H37         -4.2170     0.8560     0.2810 hn         0 59        0.367300
     85 H38         -7.3520     2.6760     0.5580 hc         0 59        0.045700
     86 H39         -7.1960     1.4070     1.7980 hc         0 59        0.045700
     87 H40         -2.8190     3.3740    -2.5730 ha         0 59        0.141500
     88 H41         -0.7180     4.6030    -2.2090 ha         0 59        0.149500
     89 H42          1.6900     4.6650    -1.9190 ha         0 59        0.149500
     90 H43          3.8450     3.4850    -1.7710 ha         0 59        0.141500
     91 H44          2.9650    -3.2210    -2.1160 ha         0 59        0.141500
     92 H45          0.7660    -4.3070    -1.9430 ha         0 59        0.149500
     93 H46         -1.4770    -4.8340    -2.0280 ha         0 59        0.149500
     94 H47         -3.6630    -3.7280    -2.2780 ha         0 59        0.141500
@<TRIPOS>BOND
     1     1     2 1   
     2     1    42 1   
     3     1    51 1   
     4     1    52 1   
     5     2     3 1   
     6     2    53 1   
     7     2    54 1   
     8     3     4 1   
     9     3    55 1   
    10     3    56 1   
    11     4     5 1   
    12     4     6 1   
    13     4    40 1   
    14     6     7 1   
    15     6    57 1   
    16     7     8 1   
    17     7    58 1   
    18     7    59 1   
    19     8     9 ar  
    20     8    50 ar  
    21     9    10 ar  
    22     9    60 1   
    23    10    11 ar  
    24    10    61 1   
    25    11    12 1   
    26    11    49 ar  
    27    12    13 1   
    28    13    14 ar  
    29    13    48 ar  
    30    14    15 ar  
    31    14    62 1   
    32    15    16 ar  
    33    15    63 1   
    34    16    17 1   
    35    16    47 ar  
    36    17    18 1   
    37    17    64 1   
    38    17    65 1   
    39    18    19 1   
    40    18    66 1   
    41    19    20 1   
    42    19    21 1   
    43    19    25 1   
    44    21    22 1   
    45    21    67 1   
    46    21    68 1   
    47    22    23 1   
    48    22    69 1   
    49    22    70 1   
    50    23    24 1   
    51    23    71 1   
    52    23    72 1   
    53    24    25 1   
    54    24    73 1   
    55    24    74 1   
    56    25    26 1   
    57    25    27 1   
    58    27    28 1   
    59    27    75 1   
    60    28    29 1   
    61    28    76 1   
    62    28    77 1   
    63    29    30 ar  
    64    29    46 ar  
    65    30    31 ar  
    66    30    78 1   
    67    31    32 ar  
    68    31    79 1   
    69    32    33 1   
    70    32    45 ar  
    71    33    34 1   
    72    34    35 ar  
    73    34    44 ar  
    74    35    36 ar  
    75    35    80 1   
    76    36    37 ar  
    77    36    81 1   
    78    37    38 1   
    79    37    43 ar  
    80    38    39 1   
    81    38    82 1   
    82    38    83 1   
    83    39    40 1   
    84    39    84 1   
    85    40    41 1   
    86    40    42 1   
    87    42    85 1   
    88    42    86 1   
    89    43    44 ar  
    90    43    87 1   
    91    44    88 1   
    92    45    46 ar  
    93    45    89 1   
    94    46    90 1   
    95    47    48 ar  
    96    47    91 1   
    97    48    92 1   
    98    49    50 ar  
    99    49    93 1   
   100    50    94 1   
@<TRIPOS>SUBSTRUCTURE
     1 59          1 TEMP              0 ****  ****    0 ROOT
