@<TRIPOS>MOLECULE
36
  148   162     1     0     0
SMALL
bcc


@<TRIPOS>ATOM
      1 O1          -5.6440    -5.6320     0.5210 o          1 36       -0.608750
      2 C1          -4.9410    -4.9440     1.2580 c          1 36        0.719225
      3 C2          -4.2500    -3.7620     0.6910 ca         1 36       -0.143600
      4 C3          -4.3740    -3.5020    -0.6710 ca         1 36       -0.042875
      5 C4          -3.7640    -2.3800    -1.2240 ca         1 36       -0.127750
      6 C5          -3.0250    -1.4750    -0.4370 ca         1 36        0.009125
      7 C6          -2.3750    -0.2650    -1.0170 ca         1 36        0.009125
      8 C7          -2.4030     0.0110    -2.3980 ca         1 36       -0.127750
      9 C8          -1.7980     1.1450    -2.9290 ca         1 36       -0.042875
     10 C9          -1.1470     2.0450    -2.0890 ca         1 36       -0.143600
     11 C10         -0.4940     3.2310    -2.6860 c          1 36        0.719225
     12 O2          -0.4720     3.3510    -3.9080 o          1 36       -0.608750
     13 N1           0.0730     4.1490    -1.8080 n          1 36       -0.488150
     14 C11          0.6100     5.3840    -2.3790 c3         1 36        0.084500
     15 C12         -0.5120     6.3970    -2.6470 c3         1 36       -0.095650
     16 C13         -0.0280     7.6760    -3.3360 c3         1 36       -0.079400
     17 C14          0.9050     8.5510    -2.4960 c3         1 36       -0.078650
     18 C15          0.2030     9.1970    -1.2960 c3         1 36       -0.077900
     19 C16          1.1490    10.0520    -0.4460 c3         1 36       -0.079150
     20 C17          2.0910     9.1980     0.4050 c3         1 36       -0.079150
     21 C18          3.0700    10.0590     1.2050 c3         1 36       -0.077900
     22 C19          3.9250     9.2490     2.1860 c3         1 36       -0.078650
     23 C20          4.7250     8.1310     1.5130 c3         1 36       -0.079400
     24 C21          5.6720     7.4440     2.4970 c3         1 36       -0.095650
     25 C22          6.4840     6.3160     1.8470 c3         1 36        0.084500
     26 N2           5.6670     5.1640     1.4650 n          1 36       -0.488150
     27 C23          5.3070     4.2740     2.4710 c          1 36        0.719225
     28 O3           5.6270     4.4070     3.6500 o          1 36       -0.608750
     29 C24          4.5020     3.0960     2.0730 ca         1 36       -0.143600
     30 C25          4.1400     2.1730     3.0500 ca         1 36       -0.042875
     31 C26          3.4090     1.0420     2.7010 ca         1 36       -0.127750
     32 C27          3.0170     0.7940     1.3710 ca         1 36        0.009125
     33 C28          2.2430    -0.4220     0.9870 ca         1 36        0.009125
     34 C29          1.8590    -1.3950     1.9310 ca         1 36       -0.127750
     35 C30          1.1330    -2.5240     1.5650 ca         1 36       -0.042875
     36 C31          0.7640    -2.7130     0.2370 ca         1 36       -0.143600
     37 C32         -0.0040    -3.9250    -0.1230 c          1 36        0.719225
     38 O4          -0.3170    -4.7170     0.7640 o          1 36       -0.608750
     39 N3          -0.3370    -4.0860    -1.4630 n          1 36       -0.488150
     40 C33         -1.0400    -5.3070    -1.8530 c3         1 36        0.084500
     41 C34         -0.1100    -6.2770    -2.5970 c3         1 36       -0.095650
     42 C35         -0.5950    -7.7300    -2.5880 c3         1 36       -0.079400
     43 C36         -2.0320    -7.9010    -3.0840 c3         1 36       -0.078650
     44 C37         -2.5100    -9.3560    -3.1010 c3         1 36       -0.077900
     45 C38         -2.4390   -10.1100    -1.7660 c3         1 36       -0.079150
     46 C39         -3.0150    -9.3330    -0.5810 c3         1 36       -0.079150
     47 C40         -3.1640   -10.2120     0.6640 c3         1 36       -0.077900
     48 C41         -3.2880    -9.4150     1.9690 c3         1 36       -0.078650
     49 C42         -4.2940    -8.2650     1.9010 c3         1 36       -0.079400
     50 C43         -4.4790    -7.5930     3.2640 c3         1 36       -0.095650
     51 C44         -5.4040    -6.3700     3.1990 c3         1 36        0.084500
     52 N4          -4.7550    -5.1960     2.6130 n          1 36       -0.488150
     53 C45         -3.9790    -4.4040     3.4560 c          1 36        0.719225
     54 O5          -3.7970    -4.6470     4.6470 o          1 36       -0.608750
     55 C46         -3.3640    -3.1930     2.8650 ca         1 36       -0.143600
     56 C47         -2.6370    -2.3380     3.6900 ca         1 36       -0.042875
     57 C48         -2.0680    -1.1810     3.1660 ca         1 36       -0.127750
     58 C49         -2.1930    -0.8450     1.8040 ca         1 36        0.009125
     59 C50         -1.6040     0.4020     1.2350 ca         1 36        0.009125
     60 C51         -0.9490     1.3580     2.0370 ca         1 36       -0.127750
     61 C52         -0.3850     2.5090     1.4930 ca         1 36       -0.042875
     62 C53         -0.4540     2.7370     0.1220 ca         1 36       -0.143600
     63 C54          0.1500     3.9730    -0.4300 c          1 36        0.719225
     64 O6           0.6860     4.7700     0.3360 o          1 36       -0.608750
     65 C55         -1.0970     1.8200    -0.7130 ca         1 36        0.016250
     66 C56         -1.6980     0.6460    -0.1610 ca         1 36       -0.032500
     67 C57         -2.9050    -1.7350     0.9540 ca         1 36       -0.032500
     68 C58         -3.5100    -2.9070     1.5080 ca         1 36        0.016250
     69 C59         -0.0710    -3.1470    -2.4540 c          1 36        0.719225
     70 O7          -0.4760    -3.2410    -3.6120 o          1 36       -0.608750
     71 C60          0.7410    -1.9710    -2.0640 ca         1 36       -0.143600
     72 C61          1.1100    -1.0540    -3.0440 ca         1 36       -0.042875
     73 C62          1.8480     0.0750    -2.6990 ca         1 36       -0.127750
     74 C63          2.2370     0.3280    -1.3690 ca         1 36        0.009125
     75 C64          3.0070     1.5460    -0.9840 ca         1 36        0.009125
     76 C65          3.3830     2.5260    -1.9240 ca         1 36       -0.127750
     77 C66          4.1120     3.6540    -1.5550 ca         1 36       -0.042875
     78 C67          4.4880     3.8380    -0.2270 ca         1 36       -0.143600
     79 C68          5.2920     5.0310     0.1310 c          1 36        0.719225
     80 O8           5.5940     5.8320    -0.7500 o          1 36       -0.608750
     81 C69          4.1270     2.9020     0.7430 ca         1 36        0.016250
     82 C70          3.3770     1.7410     0.3740 ca         1 36       -0.032500
     83 C71          1.8740    -0.6170    -0.3710 ca         1 36       -0.032500
     84 C72          1.1220    -1.7770    -0.7360 ca         1 36        0.016250
     85 H1          -4.9500    -4.1680    -1.3120 ha         1 36        0.168625
     86 H2          -3.8990    -2.2360    -2.2920 ha         1 36        0.148250
     87 H3          -2.8860    -0.6550    -3.1080 ha         1 36        0.148250
     88 H4          -1.8360     1.3170    -4.0040 ha         1 36        0.168625
     89 H5           1.1260     5.1460    -3.3170 h1         1 36        0.074450
     90 H6           1.3550     5.8100    -1.7000 h1         1 36        0.074450
     91 H7          -1.0330     6.6320    -1.7120 hc         1 36        0.053200
     92 H8          -1.2670     5.9330    -3.2960 hc         1 36        0.053200
     93 H9          -0.9030     8.2680    -3.6320 hc         1 36        0.045200
     94 H10          0.4890     7.4030    -4.2640 hc         1 36        0.045200
     95 H11          1.2960     9.3500    -3.1400 hc         1 36        0.039700
     96 H12          1.7720     7.9660    -2.1770 hc         1 36        0.039700
     97 H13         -0.2620     8.4370    -0.6590 hc         1 36        0.039950
     98 H14         -0.6060     9.8380    -1.6670 hc         1 36        0.039950
     99 H15          0.5470    10.6830     0.2190 hc         1 36        0.040575
    100 H16          1.7240    10.7270    -1.0910 hc         1 36        0.040575
    101 H17          1.5010     8.5770     1.0890 hc         1 36        0.040575
    102 H18          2.6550     8.5210    -0.2440 hc         1 36        0.040575
    103 H19          3.7260    10.6020     0.5140 hc         1 36        0.039950
    104 H20          2.5150    10.8150     1.7740 hc         1 36        0.039950
    105 H21          3.2780     8.8180     2.9600 hc         1 36        0.039700
    106 H22          4.6110     9.9370     2.6950 hc         1 36        0.039700
    107 H23          4.0310     7.3880     1.1070 hc         1 36        0.045200
    108 H24          5.3000     8.5410     0.6740 hc         1 36        0.045200
    109 H25          5.1000     7.0570     3.3480 hc         1 36        0.053200
    110 H26          6.3730     8.1880     2.8960 hc         1 36        0.053200
    111 H27          7.2410     5.9740     2.5620 h1         1 36        0.074450
    112 H28          7.0260     6.7020     0.9760 h1         1 36        0.074450
    113 H29          4.4320     2.3230     4.0880 ha         1 36        0.168625
    114 H30          3.1650     0.3600     3.5100 ha         1 36        0.148250
    115 H31          2.1150    -1.3080     2.9830 ha         1 36        0.148250
    116 H32          0.8570    -3.2530     2.3260 ha         1 36        0.168625
    117 H33         -1.4600    -5.7950    -0.9670 h1         1 36        0.074450
    118 H34         -1.8810    -5.0330    -2.5000 h1         1 36        0.074450
    119 H35          0.0140    -5.9410    -3.6330 hc         1 36        0.053200
    120 H36          0.8900    -6.2530    -2.1450 hc         1 36        0.053200
    121 H37         -0.4960    -8.1140    -1.5660 hc         1 36        0.045200
    122 H38          0.0790    -8.3290    -3.2100 hc         1 36        0.045200
    123 H39         -2.1080    -7.4990    -4.1020 hc         1 36        0.039700
    124 H40         -2.7220    -7.3110    -2.4700 hc         1 36        0.039700
    125 H41         -3.5510    -9.3640    -3.4480 hc         1 36        0.039950
    126 H42         -1.9350    -9.9170    -3.8480 hc         1 36        0.039950
    127 H43         -1.3960   -10.3730    -1.5520 hc         1 36        0.040575
    128 H44         -2.9770   -11.0600    -1.8820 hc         1 36        0.040575
    129 H45         -2.3600    -8.4880    -0.3480 hc         1 36        0.040575
    130 H46         -3.9950    -8.9220    -0.8530 hc         1 36        0.040575
    131 H47         -4.0480   -10.8520     0.5430 hc         1 36        0.039950
    132 H48         -2.3020   -10.8830     0.7570 hc         1 36        0.039950
    133 H49         -2.3030    -9.0080     2.2280 hc         1 36        0.039700
    134 H50         -3.5630   -10.1070     2.7740 hc         1 36        0.039700
    135 H51         -3.9350    -7.5250     1.1800 hc         1 36        0.045200
    136 H52         -5.2610    -8.6360     1.5410 hc         1 36        0.045200
    137 H53         -3.5030    -7.3080     3.6760 hc         1 36        0.053200
    138 H54         -4.9170    -8.3240     3.9550 hc         1 36        0.053200
    139 H55         -6.3150    -6.6150     2.6410 h1         1 36        0.074450
    140 H56         -5.7180    -6.1160     4.2180 h1         1 36        0.074450
    141 H57         -2.5180    -2.5620     4.7490 ha         1 36        0.168625
    142 H58         -1.5200    -0.5540     3.8630 ha         1 36        0.148250
    143 H59         -0.8610     1.2400     3.1130 ha         1 36        0.148250
    144 H60          0.1120     3.2220     2.1490 ha         1 36        0.168625
    145 H61          0.8190    -1.2050    -4.0830 ha         1 36        0.168625
    146 H62          2.0980     0.7520    -3.5110 ha         1 36        0.148250
    147 H63          3.1240     2.4430    -2.9760 ha         1 36        0.148250
    148 H64          4.3890     4.3840    -2.3140 ha         1 36        0.168625
@<TRIPOS>BOND
     1     1     2 2   
     2     2     3 1   
     3     2    52 1   
     4     3     4 ar  
     5     3    68 ar  
     6     4     5 ar  
     7     4    85 1   
     8     5     6 ar  
     9     5    86 1   
    10     6     7 ar  
    11     6    67 ar  
    12     7     8 ar  
    13     7    66 ar  
    14     8     9 ar  
    15     8    87 1   
    16     9    10 ar  
    17     9    88 1   
    18    10    11 1   
    19    10    65 ar  
    20    11    12 2   
    21    11    13 1   
    22    13    14 1   
    23    13    63 1   
    24    14    15 1   
    25    14    89 1   
    26    14    90 1   
    27    15    16 1   
    28    15    91 1   
    29    15    92 1   
    30    16    17 1   
    31    16    93 1   
    32    16    94 1   
    33    17    18 1   
    34    17    95 1   
    35    17    96 1   
    36    18    19 1   
    37    18    97 1   
    38    18    98 1   
    39    19    20 1   
    40    19    99 1   
    41    19   100 1   
    42    20    21 1   
    43    20   101 1   
    44    20   102 1   
    45    21    22 1   
    46    21   103 1   
    47    21   104 1   
    48    22    23 1   
    49    22   105 1   
    50    22   106 1   
    51    23    24 1   
    52    23   107 1   
    53    23   108 1   
    54    24    25 1   
    55    24   109 1   
    56    24   110 1   
    57    25    26 1   
    58    25   111 1   
    59    25   112 1   
    60    26    27 1   
    61    26    79 1   
    62    27    28 2   
    63    27    29 1   
    64    29    30 ar  
    65    29    81 ar  
    66    30    31 ar  
    67    30   113 1   
    68    31    32 ar  
    69    31   114 1   
    70    32    33 ar  
    71    32    82 ar  
    72    33    34 ar  
    73    33    83 ar  
    74    34    35 ar  
    75    34   115 1   
    76    35    36 ar  
    77    35   116 1   
    78    36    37 1   
    79    36    84 ar  
    80    37    38 2   
    81    37    39 1   
    82    39    40 1   
    83    39    69 1   
    84    40    41 1   
    85    40   117 1   
    86    40   118 1   
    87    41    42 1   
    88    41   119 1   
    89    41   120 1   
    90    42    43 1   
    91    42   121 1   
    92    42   122 1   
    93    43    44 1   
    94    43   123 1   
    95    43   124 1   
    96    44    45 1   
    97    44   125 1   
    98    44   126 1   
    99    45    46 1   
   100    45   127 1   
   101    45   128 1   
   102    46    47 1   
   103    46   129 1   
   104    46   130 1   
   105    47    48 1   
   106    47   131 1   
   107    47   132 1   
   108    48    49 1   
   109    48   133 1   
   110    48   134 1   
   111    49    50 1   
   112    49   135 1   
   113    49   136 1   
   114    50    51 1   
   115    50   137 1   
   116    50   138 1   
   117    51    52 1   
   118    51   139 1   
   119    51   140 1   
   120    52    53 1   
   121    53    54 2   
   122    53    55 1   
   123    55    56 ar  
   124    55    68 ar  
   125    56    57 ar  
   126    56   141 1   
   127    57    58 ar  
   128    57   142 1   
   129    58    59 ar  
   130    58    67 ar  
   131    59    60 ar  
   132    59    66 ar  
   133    60    61 ar  
   134    60   143 1   
   135    61    62 ar  
   136    61   144 1   
   137    62    63 1   
   138    62    65 ar  
   139    63    64 2   
   140    65    66 ar  
   141    67    68 ar  
   142    69    70 2   
   143    69    71 1   
   144    71    72 ar  
   145    71    84 ar  
   146    72    73 ar  
   147    72   145 1   
   148    73    74 ar  
   149    73   146 1   
   150    74    75 ar  
   151    74    83 ar  
   152    75    76 ar  
   153    75    82 ar  
   154    76    77 ar  
   155    76   147 1   
   156    77    78 ar  
   157    77   148 1   
   158    78    79 1   
   159    78    81 ar  
   160    79    80 2   
   161    81    82 ar  
   162    83    84 ar  
@<TRIPOS>SUBSTRUCTURE
     1 36          1 TEMP              0 ****  ****    0 ROOT
