@<TRIPOS>MOLECULE
180
   66    70     1     0     0
SMALL
bcc


@<TRIPOS>ATOM
      1 O           -3.9060    -3.4950     0.0730 o          0 180      -0.633100
      2 C           -3.2060    -2.5020     0.1510 c          0 180       0.696700
      3 N           -1.8440    -2.5780     0.2820 n          0 180      -0.567900
      4 C1          -1.2310    -3.9180     0.2670 c3         0 180       0.083000
      5 C2           0.0080    -3.9000    -0.6270 c3         0 180      -0.128400
      6 C3           1.2720    -3.9290     0.2330 c3         0 180       0.083000
      7 N1           1.8790    -2.5880     0.2530 n          0 180      -0.567900
      8 C4           3.2410    -2.5030     0.1210 c          0 180       0.696700
      9 O1           3.9490    -3.4910     0.0500 o          0 180      -0.633100
     10 C5           3.7890    -1.1400     0.0700 cc         0 180      -0.245100
     11 C6           2.9850    -0.0020     0.1260 cc         0 180      -0.041000
     12 C7           3.7740     1.1470     0.0520 cd         0 180      -0.245100
     13 C8           5.1680     0.7480    -0.0520 cd         0 180       0.000000
     14 C9           6.2600     1.6090    -0.1450 cc         0 180      -0.017500
     15 C10          7.5980     1.2780    -0.2450 cc         0 180      -0.144000
     16 C11          8.1980     0.0290    -0.2790 cd         0 180      -0.049000
     17 C12          7.6160    -1.2290    -0.2230 cd         0 180      -0.144000
     18 C13          6.2800    -1.5750    -0.1180 cc         0 180      -0.017500
     19 C14          5.1760    -0.7260    -0.0400 cd         0 180       0.000000
     20 C15          3.2060     2.5030     0.0780 c          0 180       0.696700
     21 O2           3.9030     3.4990     0.0280 o          0 180      -0.633100
     22 N2           1.8390     2.5720     0.1610 n          0 180      -0.567900
     23 C16          1.2230     3.9110     0.1740 c3         0 180       0.083000
     24 C17         -0.0820     3.8800    -0.6230 c3         0 180      -0.128400
     25 C18         -1.2740     3.9270     0.3320 c3         0 180       0.083000
     26 N3          -1.8920     2.5930     0.4150 n          0 180      -0.567900
     27 C19         -3.2410     2.5060     0.1940 c          0 180       0.696700
     28 O3          -3.9410     3.4920     0.0610 o          0 180      -0.633100
     29 C20         -3.7860     1.1430     0.1280 cc         0 180      -0.245100
     30 C21         -5.1700     0.7260    -0.0310 cc         0 180       0.000000
     31 C22         -6.2650     1.5770    -0.1540 cd         0 180      -0.017500
     32 C23         -7.5980     1.2320    -0.3040 cd         0 180      -0.144000
     33 C24         -8.1780    -0.0250    -0.3720 cc         0 180      -0.049000
     34 C25         -7.5840    -1.2760    -0.3120 cc         0 180      -0.144000
     35 C26         -6.2470    -1.6080    -0.1650 cd         0 180      -0.017500
     36 C27         -5.1570    -0.7460    -0.0390 cc         0 180       0.000000
     37 C28         -3.7670    -1.1430     0.1060 cd         0 180      -0.245100
     38 C29         -2.9820     0.0040     0.2140 cd         0 180      -0.041000
     39 H           -1.3030    -1.7790     0.3800 hn         0 180       0.303000
     40 H1          -0.9450    -4.1980     1.2800 h1         0 180       0.060700
     41 H2          -1.9490    -4.6410    -0.1220 h1         0 180       0.060700
     42 H3          -0.0040    -4.7720    -1.2810 hc         0 180       0.061200
     43 H4           0.0040    -2.9950    -1.2340 hc         0 180       0.061200
     44 H5           1.0130    -4.2260     1.2500 h1         0 180       0.060700
     45 H6           1.9810    -4.6430    -0.1850 h1         0 180       0.060700
     46 H7           1.3340    -1.7910     0.3560 hn         0 180       0.303000
     47 H8           1.9090    -0.0080     0.2140 ha         0 180       0.135000
     48 H9           6.0320     2.6650    -0.1380 ha         0 180       0.179500
     49 H10          8.2760     2.1160    -0.3050 ha         0 180       0.138000
     50 H11          9.2740     0.0370    -0.3610 ha         0 180       0.132000
     51 H12          8.3060    -2.0590    -0.2690 ha         0 180       0.138000
     52 H13          6.0660    -2.6330    -0.0950 ha         0 180       0.179500
     53 H14          1.2970     1.7690     0.2100 hn         0 180       0.303000
     54 H15          1.0130     4.2040     1.2030 h1         0 180       0.060700
     55 H16          1.9070     4.6300    -0.2770 h1         0 180       0.060700
     56 H17         -0.1190     4.7400    -1.2910 hc         0 180       0.061200
     57 H18         -0.1260     2.9630    -1.2110 hc         0 180       0.061200
     58 H19         -0.9350     4.2320     1.3220 h1         0 180       0.060700
     59 H20         -2.0070     4.6440    -0.0370 h1         0 180       0.060700
     60 H21         -1.3630     1.8050     0.6180 hn         0 180       0.303000
     61 H22         -6.0480     2.6350    -0.1300 ha         0 180       0.179500
     62 H23         -8.2840     2.0630    -0.3770 ha         0 180       0.138000
     63 H24         -9.2520    -0.0300    -0.4890 ha         0 180       0.132000
     64 H25         -8.2620    -2.1130    -0.3910 ha         0 180       0.138000
     65 H26         -6.0210    -2.6630    -0.1450 ha         0 180       0.179500
     66 H27         -1.9100     0.0110     0.3390 ha         0 180       0.135000
@<TRIPOS>BOND
     1     1     2 2   
     2     2     3 1   
     3     2    37 1   
     4     3     4 1   
     5     3    39 1   
     6     4     5 1   
     7     4    40 1   
     8     4    41 1   
     9     5     6 1   
    10     5    42 1   
    11     5    43 1   
    12     6     7 1   
    13     6    44 1   
    14     6    45 1   
    15     7     8 1   
    16     7    46 1   
    17     8     9 2   
    18     8    10 1   
    19    10    11 1   
    20    10    19 2   
    21    11    12 2   
    22    11    47 1   
    23    12    13 1   
    24    12    20 1   
    25    13    14 2   
    26    13    19 1   
    27    14    15 1   
    28    14    48 1   
    29    15    16 2   
    30    15    49 1   
    31    16    17 1   
    32    16    50 1   
    33    17    18 2   
    34    17    51 1   
    35    18    19 1   
    36    18    52 1   
    37    20    21 2   
    38    20    22 1   
    39    22    23 1   
    40    22    53 1   
    41    23    24 1   
    42    23    54 1   
    43    23    55 1   
    44    24    25 1   
    45    24    56 1   
    46    24    57 1   
    47    25    26 1   
    48    25    58 1   
    49    25    59 1   
    50    26    27 1   
    51    26    60 1   
    52    27    28 2   
    53    27    29 1   
    54    29    30 1   
    55    29    38 2   
    56    30    31 2   
    57    30    36 1   
    58    31    32 1   
    59    31    61 1   
    60    32    33 2   
    61    32    62 1   
    62    33    34 1   
    63    33    63 1   
    64    34    35 2   
    65    34    64 1   
    66    35    36 1   
    67    35    65 1   
    68    36    37 2   
    69    37    38 1   
    70    38    66 1   
@<TRIPOS>SUBSTRUCTURE
     1 180         1 TEMP              0 ****  ****    0 ROOT
