@<TRIPOS>MOLECULE
50
  100   104     1     0     0
SMALL
bcc


@<TRIPOS>ATOM
      1 O1          -0.5980     3.0270     5.1940 o          1 50       -0.669300
      2 S1           0.2480     2.3560     4.1970 s6         1 50        1.614500
      3 O2          -0.2410     0.9870     3.9810 o          1 50       -0.669300
      4 O3           1.8240     2.3050     4.7470 oh         1 50       -0.759700
      5 C1           0.1860     3.2550     2.6630 c3         1 50       -0.359850
      6 C2           1.0770     2.5500     1.6230 c3         1 50       -0.037150
      7 C3           1.0290     3.3260     0.2950 c3         1 50        0.048900
      8 C4           1.9130     2.6030    -0.7300 ca         1 50       -0.164050
      9 C5           2.1850     1.2480    -0.5250 ca         1 50       -0.061000
     10 C6           2.8920     0.5220    -1.4800 ca         1 50       -0.164050
     11 C7           3.3420     1.1560    -2.6470 ca         1 50        0.165350
     12 O4           4.0230     0.4030    -3.6540 oh         1 50       -0.509600
     13 C8           3.1330     2.5350    -2.8200 ca         1 50       -0.238250
     14 C9           2.4280     3.2650    -1.8500 ca         1 50        0.165350
     15 O5           2.2260     4.6710    -2.0130 oh         1 50       -0.509600
     16 C10          3.1650    -0.9740    -1.2420 c3         1 50        0.048900
     17 C11          3.5620    -1.2120     0.2280 c3         1 50       -0.037150
     18 C12          4.8370    -0.4130     0.5570 c3         1 50       -0.359850
     19 S2           6.1660    -0.9460    -0.5010 s6         1 50        1.614500
     20 O6           6.4190    -2.3770    -0.2860 o          1 50       -0.669300
     21 O7           5.7970    -0.7190    -1.9050 o          1 50       -0.669300
     22 O8           7.5450    -0.0750    -0.1400 oh         1 50       -0.759700
     23 C13          1.8760    -1.7590    -1.5230 ca         1 50       -0.164050
     24 C14          1.0510    -2.0530    -0.4300 ca         1 50       -0.061000
     25 C15         -0.1560    -2.7230    -0.6150 ca         1 50       -0.164050
     26 C16         -0.5590    -3.0810    -1.9110 ca         1 50        0.165350
     27 O9          -1.8200    -3.7210    -2.1180 oh         1 50       -0.509600
     28 C17          0.2830    -2.8170    -3.0070 ca         1 50       -0.238250
     29 C18          1.5130    -2.1680    -2.8110 ca         1 50        0.165350
     30 O10          2.3810    -1.9200    -3.9200 oh         1 50       -0.509600
     31 C19         -1.0310    -3.0730     0.6090 c3         1 50        0.048900
     32 C20         -0.1250    -3.4280     1.8020 c3         1 50       -0.037150
     33 C21         -0.9990    -3.7930     3.0160 c3         1 50       -0.359850
     34 S3           0.0490    -4.2130     4.3920 s6         1 50        1.614500
     35 O11          0.8990    -3.0630     4.7280 o          1 50       -0.669300
     36 O12          0.8950    -5.3590     4.0300 o          1 50       -0.669300
     37 O13         -0.8960    -4.6120     5.7090 oh         1 50       -0.759700
     38 C22         -1.9180    -1.8730     1.0040 ca         1 50       -0.164050
     39 C23         -2.3100    -0.9250     0.0540 ca         1 50       -0.061000
     40 C24         -3.1320     0.1500     0.4310 ca         1 50       -0.164050
     41 C25         -3.5570     0.2820     1.7580 ca         1 50        0.165350
     42 O14         -4.4000     1.3720     2.1380 oh         1 50       -0.509600
     43 C26         -3.1510    -0.6580     2.7130 ca         1 50       -0.238250
     44 C27         -2.3320    -1.7330     2.3370 ca         1 50        0.165350
     45 O15         -1.9210    -2.6900     3.3150 oh         1 50       -0.509600
     46 C28         -3.5600     1.1650    -0.6380 c3         1 50        0.048900
     47 C29         -3.5360     0.4600    -2.0060 c3         1 50       -0.037150
     48 C30         -4.5030    -0.7390    -1.9770 c3         1 50       -0.359850
     49 S4          -4.4810    -1.5600    -3.5560 s6         1 50        1.614500
     50 O16         -3.1210    -2.0370    -3.8420 o          1 50       -0.669300
     51 O17         -4.9000    -0.6180    -4.6030 o          1 50       -0.669300
     52 O18         -5.5300    -2.8580    -3.5210 oh         1 50       -0.759700
     53 C31         -2.5950     2.3710    -0.6570 ca         1 50       -0.164050
     54 C32         -1.2820     2.2750    -0.1530 ca         1 50       -0.061000
     55 C33         -0.4170     3.3810    -0.2470 ca         1 50       -0.164050
     56 C34         -0.8620     4.5660    -0.8480 ca         1 50        0.165350
     57 O19          0.0310     5.6750    -0.9880 oh         1 50       -0.509600
     58 C35         -2.1800     4.6740    -1.3040 ca         1 50       -0.238250
     59 C36         -3.0480     3.5830    -1.1960 ca         1 50        0.165350
     60 O20         -4.4010     3.7010    -1.6450 oh         1 50       -0.509600
     61 H1           1.8590     1.8180     5.5730 ho         1 50        0.483250
     62 H2           0.5410     4.2530     2.8180 h1         1 50        0.138325
     63 H3          -0.8220     3.2870     2.3070 h1         1 50        0.138325
     64 H4           0.7230     1.5530     1.4680 hc         1 50        0.064200
     65 H5           2.0860     2.5190     1.9810 hc         1 50        0.064200
     66 H6           1.3790     4.3250     0.4540 hc         1 50        0.070950
     67 H7           1.8420     0.7640     0.3650 ha         1 50        0.144250
     68 H8           4.9660     0.4080    -3.4730 ho         1 50        0.442375
     69 H9           3.5090     3.0280    -3.6920 ha         1 50        0.160250
     70 H10          2.1920     4.8830    -2.9480 ho         1 50        0.442375
     71 H11          3.9600    -1.2940    -1.8830 hc         1 50        0.070950
     72 H12          3.7440    -2.2560     0.3830 hc         1 50        0.064200
     73 H13          2.7670    -0.8910     0.8680 hc         1 50        0.064200
     74 H14          4.6530     0.6290     0.4010 h1         1 50        0.138325
     75 H15          5.1070    -0.5790     1.5790 h1         1 50        0.138325
     76 H16          8.2630    -0.3600    -0.7100 ho         1 50        0.483250
     77 H17          1.3500    -1.7590     0.5540 ha         1 50        0.144250
     78 H18         -2.1580    -3.4870    -2.9860 ho         1 50        0.442375
     79 H19         -0.0140    -3.1110    -3.9910 ha         1 50        0.160250
     80 H20          2.8890    -1.1230    -3.7560 ho         1 50        0.442375
     81 H21         -1.6480    -3.9130     0.3650 hc         1 50        0.070950
     82 H22          0.4930    -4.2620     1.5440 hc         1 50        0.064200
     83 H23          0.4920    -2.5880     2.0450 hc         1 50        0.064200
     84 H24         -1.6150    -2.9580     3.2770 h1         1 50        0.138325
     85 H25         -1.6180    -4.6310     2.7710 h1         1 50        0.138325
     86 H26         -1.4490    -3.8640     5.9440 ho         1 50        0.483250
     87 H27         -1.9860    -1.0200    -0.9610 ha         1 50        0.144250
     88 H28         -4.2160     2.1290     1.5780 ho         1 50        0.442375
     89 H29         -3.4670    -0.5570     3.7300 ha         1 50        0.160250
     90 H30         -1.8610    -2.2650     4.1740 ho         1 50        0.442375
     91 H31         -4.5490     1.5180    -0.4320 hc         1 50        0.070950
     92 H32         -2.5460     0.1130    -2.2130 hc         1 50        0.064200
     93 H33         -3.8400     1.1470    -2.7680 hc         1 50        0.064200
     94 H34         -4.1960    -1.4240    -1.2150 h1         1 50        0.138325
     95 H35         -5.4940    -0.3930    -1.7700 h1         1 50        0.138325
     96 H36         -5.5190    -3.3020    -4.3720 ho         1 50        0.483250
     97 H37         -0.9440     1.3640     0.2970 ha         1 50        0.144250
     98 H38          0.9300     5.3520    -1.0830 ho         1 50        0.442375
     99 H39         -2.5240     5.5900    -1.7360 ha         1 50        0.160250
    100 H40         -4.4450     4.3350    -2.3640 ho         1 50        0.442375
@<TRIPOS>BOND
     1     1     2 2   
     2     2     3 2   
     3     2     4 1   
     4     2     5 1   
     5     4    61 1   
     6     5     6 1   
     7     5    62 1   
     8     5    63 1   
     9     6     7 1   
    10     6    64 1   
    11     6    65 1   
    12     7     8 1   
    13     7    55 1   
    14     7    66 1   
    15     8     9 ar  
    16     8    14 ar  
    17     9    10 ar  
    18     9    67 1   
    19    10    11 ar  
    20    10    16 1   
    21    11    12 1   
    22    11    13 ar  
    23    12    68 1   
    24    13    14 ar  
    25    13    69 1   
    26    14    15 1   
    27    15    70 1   
    28    16    17 1   
    29    16    23 1   
    30    16    71 1   
    31    17    18 1   
    32    17    72 1   
    33    17    73 1   
    34    18    19 1   
    35    18    74 1   
    36    18    75 1   
    37    19    20 2   
    38    19    21 2   
    39    19    22 1   
    40    22    76 1   
    41    23    24 ar  
    42    23    29 ar  
    43    24    25 ar  
    44    24    77 1   
    45    25    26 ar  
    46    25    31 1   
    47    26    27 1   
    48    26    28 ar  
    49    27    78 1   
    50    28    29 ar  
    51    28    79 1   
    52    29    30 1   
    53    30    80 1   
    54    31    32 1   
    55    31    38 1   
    56    31    81 1   
    57    32    33 1   
    58    32    82 1   
    59    32    83 1   
    60    33    34 1   
    61    33    84 1   
    62    33    85 1   
    63    34    35 2   
    64    34    36 2   
    65    34    37 1   
    66    37    86 1   
    67    38    39 ar  
    68    38    44 ar  
    69    39    40 ar  
    70    39    87 1   
    71    40    41 ar  
    72    40    46 1   
    73    41    42 1   
    74    41    43 ar  
    75    42    88 1   
    76    43    44 ar  
    77    43    89 1   
    78    44    45 1   
    79    45    90 1   
    80    46    47 1   
    81    46    53 1   
    82    46    91 1   
    83    47    48 1   
    84    47    92 1   
    85    47    93 1   
    86    48    49 1   
    87    48    94 1   
    88    48    95 1   
    89    49    50 2   
    90    49    51 2   
    91    49    52 1   
    92    52    96 1   
    93    53    54 ar  
    94    53    59 ar  
    95    54    55 ar  
    96    54    97 1   
    97    55    56 ar  
    98    56    57 1   
    99    56    58 ar  
   100    57    98 1   
   101    58    59 ar  
   102    58    99 1   
   103    59    60 1   
   104    60   100 1   
@<TRIPOS>SUBSTRUCTURE
     1 50          1 TEMP              0 ****  ****    0 ROOT
