@<TRIPOS>MOLECULE
57
  120   126     1     0     0
SMALL
bcc


@<TRIPOS>ATOM
      1 C            5.7390     6.3980    -0.5190 c3         0 57       -0.049133
      2 C1           4.7560     5.2620    -0.4010 ca         0 57       -0.107633
      3 C2           5.1020     4.0010    -0.8510 ca         0 57       -0.088000
      4 C3           4.2020     2.9590    -0.7470 ca         0 57       -0.145967
      5 C4           2.9530     3.1760    -0.1830 ca         0 57        0.126433
      6 O            2.0680     2.1500    -0.0720 oh         0 57       -0.506433
      7 C5           2.6090     4.4420     0.2680 ca         0 57       -0.145967
      8 C6           1.2550     4.6810     0.8840 c3         0 57        0.213933
      9 N            0.2320     4.7110    -0.1710 n3         0 57       -0.823033
     10 C7          -1.0180     5.1400     0.4680 c3         0 57        0.180000
     11 H           -1.1520     4.5970     1.4040 h1         0 57        0.045700
     12 C8          -0.9560     6.6410     0.7560 c3         0 57       -0.091400
     13 C9          -2.1780     7.0530     1.5810 c3         0 57       -0.076067
     14 C10         -3.4460     6.5130     0.9180 c3         0 57       -0.076067
     15 C11         -3.1250     6.0620    -0.5090 c3         0 57       -0.091400
     16 C12         -2.1960     4.8470    -0.4630 c3         0 57        0.180000
     17 H1          -1.8220     4.6380    -1.4660 h1         0 57        0.045700
     18 N1          -2.9380     3.6820     0.0360 n3         0 57       -0.823033
     19 C13         -3.7540     3.1920    -1.0820 c3         0 57        0.213933
     20 C14         -4.7180     2.1460    -0.5850 ca         0 57       -0.145967
     21 C15         -6.0800     2.3590    -0.6850 ca         0 57       -0.088000
     22 C16         -6.9660     1.3980    -0.2360 ca         0 57       -0.107633
     23 C17         -8.4500     1.6300    -0.3520 c3         0 57       -0.049133
     24 C18         -6.4920     0.2220     0.3180 ca         0 57       -0.088000
     25 C19         -5.1310     0.0070     0.4260 ca         0 57       -0.145967
     26 C20         -4.6180    -1.2670     1.0440 c3         0 57        0.213933
     27 N2          -4.0410    -2.1330     0.0070 n3         0 57       -0.823033
     28 C21         -3.9470    -3.4760     0.5950 c3         0 57        0.180000
     29 H2          -3.5140    -3.4050     1.5930 h1         0 57        0.045700
     30 C22         -5.3480    -4.0850     0.6900 c3         0 57       -0.091400
     31 C23         -5.6940    -4.7760    -0.6310 c3         0 57       -0.076067
     32 C24         -4.8480    -6.0410    -0.7830 c3         0 57       -0.076067
     33 C25         -3.4870    -5.8270    -0.1160 c3         0 57       -0.091400
     34 C26         -3.0640    -4.3650    -0.2830 c3         0 57        0.180000
     35 H3          -3.1780    -4.0730    -1.3280 h1         0 57        0.045700
     36 N3          -1.6560    -4.2200     0.1120 n3         0 57       -0.823033
     37 C27         -0.8760    -4.9950    -0.8600 c3         0 57        0.213933
     38 C28          0.5120    -5.2450    -0.3340 ca         0 57       -0.145967
     39 C29          1.3050    -4.1840     0.0770 ca         0 57        0.126433
     40 O1           0.8260    -2.9140     0.0190 oh         0 57       -0.506433
     41 C30          2.5890    -4.4210     0.5470 ca         0 57       -0.145967
     42 C31          3.4540    -3.2710     0.9920 c3         0 57        0.213933
     43 N4           4.0430    -2.6190    -0.1860 n3         0 57       -0.823033
     44 C32          5.0960    -1.7220     0.3070 c3         0 57        0.180000
     45 H4           4.8060    -1.3190     1.2770 h1         0 57        0.045700
     46 C33          6.4050    -2.5020     0.4500 c3         0 57       -0.091400
     47 C34          7.4610    -1.6110     1.1060 c3         0 57       -0.076067
     48 C35          7.5410    -0.2780     0.3600 c3         0 57       -0.076067
     49 C36          6.7840    -0.3890    -0.9650 c3         0 57       -0.091400
     50 C37          5.2910    -0.5750    -0.6870 c3         0 57        0.180000
     51 H5           4.7750    -0.8120    -1.6180 h1         0 57        0.045700
     52 N5           4.7390     0.6660    -0.1270 n3         0 57       -0.823033
     53 C38          4.5720     1.5900    -1.2560 c3         0 57        0.213933
     54 C39          3.0730    -5.7140     0.6090 ca         0 57       -0.088000
     55 C40          2.2780    -6.7710     0.2050 ca         0 57       -0.107633
     56 C41          2.8070    -8.1800     0.2770 c3         0 57       -0.049133
     57 C42          0.9990    -6.5370    -0.2650 ca         0 57       -0.088000
     58 C43         -4.2410     0.9680    -0.0280 ca         0 57        0.126433
     59 O2          -2.9020     0.7570     0.0710 oh         0 57       -0.506433
     60 C44          3.5120     5.4820     0.1600 ca         0 57       -0.088000
     61 H6           5.6020     6.9010    -1.4770 hc         0 57        0.043700
     62 H7           5.5730     7.1090     0.2910 hc         0 57        0.043700
     63 H8           6.7550     6.0080    -0.4560 hc         0 57        0.043700
     64 H9           6.0770     3.8310    -1.2830 ha         0 57        0.136000
     65 H10          2.2280     1.7350     0.7860 ho         0 57        0.429333
     66 H11          1.0280     3.8790     1.5860 h1         0 57        0.045867
     67 H12          1.2590     5.6350     1.4120 h1         0 57        0.045867
     68 H13          0.4970     5.4450    -0.8110 hn         0 57        0.375133
     69 H14         -0.0480     6.8670     1.3150 hc         0 57        0.044950
     70 H15         -0.9510     7.1920    -0.1850 hc         0 57        0.044950
     71 H16         -2.0910     6.6440     2.5870 hc         0 57        0.040783
     72 H17         -2.2300     8.1400     1.6340 hc         0 57        0.040783
     73 H18         -3.8220     5.6650     1.4900 hc         0 57        0.040783
     74 H19         -4.2030     7.2960     0.8890 hc         0 57        0.040783
     75 H20         -4.0480     5.7950    -1.0220 hc         0 57        0.044950
     76 H21         -2.6340     6.8750    -1.0440 hc         0 57        0.044950
     77 H22         -2.2550     2.9660     0.2330 hn         0 57        0.375133
     78 H23         -4.3110     4.0220    -1.5160 h1         0 57        0.045867
     79 H24         -3.1040     2.7550    -1.8410 h1         0 57        0.045867
     80 H25         -6.4520     3.2780    -1.1140 ha         0 57        0.136000
     81 H26         -8.8040     1.2490    -1.3100 hc         0 57        0.043700
     82 H27         -8.9630     1.1120     0.4580 hc         0 57        0.043700
     83 H28         -8.6570     2.6990    -0.2870 hc         0 57        0.043700
     84 H29         -7.1870    -0.5280     0.6660 ha         0 57        0.136000
     85 H30         -3.8530    -1.0280     1.7820 h1         0 57        0.045867
     86 H31         -5.4400    -1.7880     1.5340 h1         0 57        0.045867
     87 H32         -4.7220    -2.1880    -0.7360 hn         0 57        0.375133
     88 H33         -5.3730    -4.8150     1.4990 hc         0 57        0.044950
     89 H34         -6.0740    -3.2970     0.8890 hc         0 57        0.044950
     90 H35         -6.7510    -5.0430    -0.6360 hc         0 57        0.040783
     91 H36         -5.4870    -4.0990    -1.4600 hc         0 57        0.040783
     92 H37         -5.3580    -6.8790    -0.3070 hc         0 57        0.040783
     93 H38         -4.7040    -6.2570    -1.8410 hc         0 57        0.040783
     94 H39         -3.5600    -6.0650     0.9450 hc         0 57        0.044950
     95 H40         -2.7460    -6.4750    -0.5840 hc         0 57        0.044950
     96 H41         -1.4140    -3.2500    -0.0280 hn         0 57        0.375133
     97 H42         -1.3710    -5.9490    -1.0420 h1         0 57        0.045867
     98 H43         -0.8130    -4.4400    -1.7970 h1         0 57        0.045867
     99 H44          0.3960    -2.7390     0.8680 ho         0 57        0.429333
    100 H45          2.8470    -2.5510     1.5400 h1         0 57        0.045867
    101 H46          4.2500    -3.6430     1.6370 h1         0 57        0.045867
    102 H47          4.5040    -3.3430    -0.7180 hn         0 57        0.375133
    103 H48          6.2360    -3.3830     1.0690 hc         0 57        0.044950
    104 H49          6.7520    -2.8110    -0.5360 hc         0 57        0.044950
    105 H50          7.1880    -1.4300     2.1460 hc         0 57        0.040783
    106 H51          8.4300    -2.1090     1.0670 hc         0 57        0.040783
    107 H52          7.0940     0.5070     0.9690 hc         0 57        0.040783
    108 H53          8.5850    -0.0350     0.1620 hc         0 57        0.040783
    109 H54          6.9340     0.5200    -1.5470 hc         0 57        0.044950
    110 H55          7.1580    -1.2460    -1.5260 hc         0 57        0.044950
    111 H56          3.8120     0.4460     0.2070 hn         0 57        0.375133
    112 H57          3.7830     1.2220    -1.9130 h1         0 57        0.045867
    113 H58          5.5060     1.6520    -1.8150 h1         0 57        0.045867
    114 H59          4.0730    -5.8980     0.9720 ha         0 57        0.136000
    115 H60          2.5680    -8.6090     1.2500 hc         0 57        0.043700
    116 H61          2.3480    -8.7810    -0.5080 hc         0 57        0.043700
    117 H62          3.8890    -8.1700     0.1410 hc         0 57        0.043700
    118 H63          0.3800    -7.3650    -0.5780 ha         0 57        0.136000
    119 H64         -2.6270     0.3180    -0.7460 ho         0 57        0.429333
    120 H65          3.2440     6.4680     0.5080 ha         0 57        0.136000
@<TRIPOS>BOND
     1     1     2 1   
     2     1    61 1   
     3     1    62 1   
     4     1    63 1   
     5     2     3 ar  
     6     2    60 ar  
     7     3     4 ar  
     8     3    64 1   
     9     4     5 ar  
    10     4    53 1   
    11     5     6 1   
    12     5     7 ar  
    13     6    65 1   
    14     7     8 1   
    15     7    60 ar  
    16     8     9 1   
    17     8    66 1   
    18     8    67 1   
    19     9    10 1   
    20     9    68 1   
    21    10    11 1   
    22    10    12 1   
    23    10    16 1   
    24    12    13 1   
    25    12    69 1   
    26    12    70 1   
    27    13    14 1   
    28    13    71 1   
    29    13    72 1   
    30    14    15 1   
    31    14    73 1   
    32    14    74 1   
    33    15    16 1   
    34    15    75 1   
    35    15    76 1   
    36    16    17 1   
    37    16    18 1   
    38    18    19 1   
    39    18    77 1   
    40    19    20 1   
    41    19    78 1   
    42    19    79 1   
    43    20    21 ar  
    44    20    58 ar  
    45    21    22 ar  
    46    21    80 1   
    47    22    23 1   
    48    22    24 ar  
    49    23    81 1   
    50    23    82 1   
    51    23    83 1   
    52    24    25 ar  
    53    24    84 1   
    54    25    26 1   
    55    25    58 ar  
    56    26    27 1   
    57    26    85 1   
    58    26    86 1   
    59    27    28 1   
    60    27    87 1   
    61    28    29 1   
    62    28    30 1   
    63    28    34 1   
    64    30    31 1   
    65    30    88 1   
    66    30    89 1   
    67    31    32 1   
    68    31    90 1   
    69    31    91 1   
    70    32    33 1   
    71    32    92 1   
    72    32    93 1   
    73    33    34 1   
    74    33    94 1   
    75    33    95 1   
    76    34    35 1   
    77    34    36 1   
    78    36    37 1   
    79    36    96 1   
    80    37    38 1   
    81    37    97 1   
    82    37    98 1   
    83    38    39 ar  
    84    38    57 ar  
    85    39    40 1   
    86    39    41 ar  
    87    40    99 1   
    88    41    42 1   
    89    41    54 ar  
    90    42    43 1   
    91    42   100 1   
    92    42   101 1   
    93    43    44 1   
    94    43   102 1   
    95    44    45 1   
    96    44    46 1   
    97    44    50 1   
    98    46    47 1   
    99    46   103 1   
   100    46   104 1   
   101    47    48 1   
   102    47   105 1   
   103    47   106 1   
   104    48    49 1   
   105    48   107 1   
   106    48   108 1   
   107    49    50 1   
   108    49   109 1   
   109    49   110 1   
   110    50    51 1   
   111    50    52 1   
   112    52    53 1   
   113    52   111 1   
   114    53   112 1   
   115    53   113 1   
   116    54    55 ar  
   117    54   114 1   
   118    55    56 1   
   119    55    57 ar  
   120    56   115 1   
   121    56   116 1   
   122    56   117 1   
   123    57   118 1   
   124    58    59 1   
   125    59   119 1   
   126    60   120 1   
@<TRIPOS>SUBSTRUCTURE
     1 57          1 TEMP              0 ****  ****    0 ROOT
