@<TRIPOS>MOLECULE
UNL
   55    57     1     0     0
SMALL
bcc


@<TRIPOS>ATOM
      1 C1          -3.4340     0.6790     0.7960 c3         1 UNL      -0.090100
      2 C2          -3.3230    -0.2940    -0.3910 c3         1 UNL      -0.049000
      3 C3          -4.7670    -0.5790    -0.8670 c3         1 UNL      -0.090100
      4 C4          -2.6830    -1.6250     0.0500 c3         1 UNL      -0.071400
      5 C5          -1.1690    -1.5400     0.2870 c3         1 UNL       0.086700
      6 C6          -0.4510    -0.9840    -0.9570 c3         1 UNL      -0.105400
      7 C7          -0.9880     0.3760    -1.4650 c3         1 UNL      -0.048000
      8 C8          -0.4280     0.6210    -2.8890 c3         1 UNL      -0.099100
      9 C9          -0.5570     1.5600    -0.5560 c3         1 UNL       0.094000
     10 N1           0.8380     1.9520    -0.6710 n          1 UNL      -0.552900
     11 C10          1.2380     3.1700    -0.2050 c          1 UNL       0.734100
     12 O1           0.4600     4.0560     0.1400 o          1 UNL      -0.641100
     13 N2           2.5700     3.4010    -0.1130 n          1 UNL      -0.532900
     14 C11          3.6910     2.5380    -0.4550 c3         1 UNL       0.019700
     15 C12          3.6830     1.2530     0.3400 ca         1 UNL       0.370600
     16 C13          3.6640     1.2780     1.7330 ca         1 UNL      -0.235300
     17 C14          3.3440     0.1100     2.4190 ca         1 UNL      -0.076000
     18 C15          3.0790    -1.0570     1.7010 ca         1 UNL      -0.245600
     19 C16          3.2270    -1.0130     0.3200 ca         1 UNL       0.410200
     20 N3           3.4950     0.1140    -0.3710 nb         1 UNL      -0.665000
     21 C17          2.4770    -2.2720     2.3460 c3         1 UNL       0.124300
     22 N4           1.0710    -2.3020     2.0030 n          1 UNL      -0.514900
     23 C18          0.5510    -3.1960     1.1290 c          1 UNL       0.724100
     24 O2           1.1220    -4.2240     0.7810 o          1 UNL      -0.635100
     25 N5          -0.6640    -2.8850     0.6030 n          1 UNL      -0.530900
     26 C19         -2.5380     0.3090    -1.5840 c3         1 UNL      -0.066400
     27 H1          -2.4990     0.7970     1.3430 hc         1 UNL       0.038033
     28 H2          -3.7620     1.6710     0.4660 hc         1 UNL       0.038033
     29 H3          -4.1680     0.3190     1.5270 hc         1 UNL       0.038033
     30 H4          -4.7800    -1.2730    -1.7150 hc         1 UNL       0.038033
     31 H5          -5.3670    -1.0280    -0.0670 hc         1 UNL       0.038033
     32 H6          -5.2670     0.3430    -1.1840 hc         1 UNL       0.038033
     33 H7          -2.8730    -2.3860    -0.7200 hc         1 UNL       0.052200
     34 H8          -3.1740    -1.9970     0.9590 hc         1 UNL       0.052200
     35 H9          -0.9690    -0.8910     1.1430 h1         1 UNL       0.059700
     36 H10         -0.5480    -1.7260    -1.7630 hc         1 UNL       0.052200
     37 H11          0.6230    -0.9110    -0.7610 hc         1 UNL       0.052200
     38 H12          0.6670     0.5940    -2.9060 hc         1 UNL       0.041033
     39 H13         -0.7510     1.5940    -3.2760 hc         1 UNL       0.041033
     40 H14         -0.7750    -0.1460    -3.5910 hc         1 UNL       0.041033
     41 H15         -1.1720     2.4390    -0.7820 h1         1 UNL       0.055200
     42 H16         -0.7030     1.3280     0.5000 h1         1 UNL       0.055200
     43 H17          1.5280     1.2100    -0.6650 hn         1 UNL       0.316500
     44 H18          2.7760     4.3440     0.1850 hn         1 UNL       0.305500
     45 H19          3.6360     2.3270    -1.5280 h1         1 UNL       0.072700
     46 H20          4.6150     3.0910    -0.2570 h1         1 UNL       0.072700
     47 H21          3.7960     2.2110     2.2740 ha         1 UNL       0.145000
     48 H22          3.2380     0.1350     3.5010 ha         1 UNL       0.143000
     49 H23          3.0470    -1.8950    -0.2920 h4         1 UNL       0.046100
     50 H24          2.5530    -2.2200     3.4370 h1         1 UNL       0.082200
     51 H25          2.9920    -3.1780     2.0100 h1         1 UNL       0.082200
     52 H26          0.4700    -1.5870     2.3780 hn         1 UNL       0.295500
     53 H27         -0.9340    -3.6090    -0.0530 hn         1 UNL       0.297500
     54 H28         -2.9350     1.3060    -1.8210 hc         1 UNL       0.047700
     55 H29         -2.7710    -0.3070    -2.4650 hc         1 UNL       0.047700
@<TRIPOS>BOND
     1     1     2 1   
     2     1    27 1   
     3     1    28 1   
     4     1    29 1   
     5     2     3 1   
     6     2     4 1   
     7     2    26 1   
     8     3    30 1   
     9     3    31 1   
    10     3    32 1   
    11     4     5 1   
    12     4    33 1   
    13     4    34 1   
    14     5     6 1   
    15     5    25 1   
    16     5    35 1   
    17     6     7 1   
    18     6    36 1   
    19     6    37 1   
    20     7     8 1   
    21     7     9 1   
    22     7    26 1   
    23     8    38 1   
    24     8    39 1   
    25     8    40 1   
    26     9    10 1   
    27     9    41 1   
    28     9    42 1   
    29    10    11 1   
    30    10    43 1   
    31    11    12 2   
    32    11    13 1   
    33    13    14 1   
    34    13    44 1   
    35    14    15 1   
    36    14    45 1   
    37    14    46 1   
    38    15    16 ar  
    39    15    20 ar  
    40    16    17 ar  
    41    16    47 1   
    42    17    18 ar  
    43    17    48 1   
    44    18    19 ar  
    45    18    21 1   
    46    19    20 ar  
    47    19    49 1   
    48    21    22 1   
    49    21    50 1   
    50    21    51 1   
    51    22    23 1   
    52    22    52 1   
    53    23    24 2   
    54    23    25 1   
    55    25    53 1   
    56    26    54 1   
    57    26    55 1   
@<TRIPOS>SUBSTRUCTURE
     1 UNL         1 TEMP              0 ****  ****    0 ROOT
