@<TRIPOS>MOLECULE
82
  108   116     1     0     0
SMALL
bcc


@<TRIPOS>ATOM
      1 H            2.9370     2.2400     0.5620 h2         0 82        0.060075
      2 C            3.6850     2.4450    -0.2030 c3         0 82        0.382500
      3 N            3.6030     3.8770    -0.6420 nh         0 82       -0.591250
      4 C1           2.6020     4.4520     0.3000 c3         0 82        0.166050
      5 C2           1.3370     4.8000    -0.4850 c3         0 82       -0.081650
      6 C3           0.0970     4.4490     0.3460 c3         0 82       -0.081900
      7 C4          -1.1510     4.7790    -0.4710 c3         0 82       -0.081650
      8 C5          -2.4210     4.3620     0.2700 c3         0 82        0.166050
      9 N1          -3.4790     4.0920    -0.7270 nh         0 82       -0.591250
     10 C6          -3.6070     2.6040    -0.7470 c3         0 82        0.382500
     11 H1          -3.1220     2.1650     0.1250 h2         0 82        0.060075
     12 N2          -5.0720     2.3750    -0.6980 nh         0 82       -0.597000
     13 C7          -5.3090     1.2930     0.2650 c3         0 82        0.169550
     14 C8          -5.8130     0.0550    -0.4840 c3         0 82       -0.088400
     15 C9          -5.3430    -1.2090     0.2430 c3         0 82        0.169550
     16 N3          -5.1490    -2.2840    -0.7520 nh         0 82       -0.597000
     17 C10         -3.6860    -2.5610    -0.7510 c3         0 82        0.382500
     18 H2          -3.2110    -2.1090     0.1190 h2         0 82        0.060075
     19 N4          -3.6050    -4.0450    -0.6790 nh         0 82       -0.591250
     20 C11         -2.5460    -4.3610     0.2850 c3         0 82        0.166050
     21 C12         -1.2610    -4.7070    -0.4670 c3         0 82       -0.081650
     22 C13         -0.0270    -4.4270     0.3930 c3         0 82       -0.081900
     23 C14          1.2180    -4.8790    -0.3760 c3         0 82       -0.081650
     24 C15          2.4790    -4.3300     0.2940 c3         0 82        0.166050
     25 N5           3.5100    -4.0890    -0.7370 nh         0 82       -0.591250
     26 C16          3.6870    -2.6080    -0.7580 c3         0 82        0.382500
     27 H3           3.2400    -2.1560     0.1270 h2         0 82        0.060075
     28 N6           5.1590    -2.4280    -0.7490 nh         0 82       -0.597000
     29 C17          5.4280    -1.3660     0.2320 c3         0 82        0.169550
     30 C18          4.7680    -0.0660    -0.2310 c3         0 82       -0.088400
     31 C19          5.7170     1.1200    -0.0400 c3         0 82        0.169550
     32 N7           5.0130     2.2900     0.3410 nh         0 82       -0.597000
     33 C20          5.6780     3.4890     0.3430 ca         0 82        0.055100
     34 C21          4.8340     4.4530    -0.2200 ca         0 82        0.053850
     35 C22          5.2650     5.7700    -0.3120 ca         0 82       -0.118750
     36 C23          6.5260     6.1260     0.1270 ca         0 82       -0.132000
     37 C24          7.3710     5.1690     0.6570 ca         0 82       -0.131000
     38 C25          6.9510     3.8580     0.7630 ca         0 82       -0.121000
     39 C26          5.7020    -3.6150    -0.2310 ca         0 82        0.055100
     40 C27          4.7180    -4.6060    -0.2140 ca         0 82        0.053850
     41 C28          5.0210    -5.8700     0.2720 ca         0 82       -0.118750
     42 C29          6.2950    -6.1500     0.7250 ca         0 82       -0.132000
     43 C30          7.2740    -5.1740     0.7070 ca         0 82       -0.131000
     44 C31          6.9770    -3.9090     0.2320 ca         0 82       -0.121000
     45 C32         -4.8260    -4.4770    -0.1380 ca         0 82        0.053850
     46 C33         -5.7520    -3.4330    -0.1850 ca         0 82        0.055100
     47 C34         -7.0410    -3.6370     0.2810 ca         0 82       -0.121000
     48 C35         -7.4160    -4.8620     0.8030 ca         0 82       -0.131000
     49 C36         -6.4960    -5.8920     0.8650 ca         0 82       -0.132000
     50 C37         -5.2090    -5.7000     0.3970 ca         0 82       -0.118750
     51 C38         -5.6350     3.5430    -0.1530 ca         0 82        0.055100
     52 C39         -4.6830     4.5640    -0.1550 ca         0 82        0.053850
     53 C40         -5.0100     5.8100     0.3570 ca         0 82       -0.118750
     54 C41         -6.2760     6.0570     0.8530 ca         0 82       -0.132000
     55 C42         -7.2280     5.0540     0.8410 ca         0 82       -0.131000
     56 C43         -6.9060     3.8060     0.3390 ca         0 82       -0.121000
     57 H4           3.5450     1.7800    -1.0560 h2         0 82        0.060075
     58 H5           2.3640     3.7210     1.0720 h1         0 82        0.040450
     59 H6           3.0080     5.3540     0.7590 h1         0 82        0.040450
     60 H7           1.3320     5.8670    -0.7100 hc         0 82        0.050825
     61 H8           1.3210     4.2340    -1.4170 hc         0 82        0.050825
     62 H9           0.1070     3.3850     0.5850 hc         0 82        0.041950
     63 H10          0.0970     5.0330     1.2660 hc         0 82        0.041950
     64 H11         -1.1830     5.8530    -0.6580 hc         0 82        0.050825
     65 H12         -1.1050     4.2530    -1.4240 hc         0 82        0.050825
     66 H13         -2.2270     3.4600     0.8510 h1         0 82        0.040450
     67 H14         -2.7400     5.1660     0.9330 h1         0 82        0.040450
     68 H15         -3.1860     2.1950    -1.6650 h2         0 82        0.060075
     69 H16         -4.3780     1.0540     0.7800 h1         0 82        0.042200
     70 H17         -6.0570     1.6090     0.9920 h1         0 82        0.042200
     71 H18         -6.9030     0.0700    -0.5180 hc         0 82        0.057700
     72 H19         -5.4180     0.0590    -1.4990 hc         0 82        0.057700
     73 H20         -4.4000    -1.0090     0.7530 h1         0 82        0.042200
     74 H21         -6.0960    -1.5150     0.9700 h1         0 82        0.042200
     75 H22         -3.2270    -2.1960    -1.6700 h2         0 82        0.060075
     76 H23         -2.3700    -3.4970     0.9270 h1         0 82        0.040450
     77 H24         -2.8510    -5.2110     0.8940 h1         0 82        0.040450
     78 H25         -1.2770    -5.7640    -0.7350 hc         0 82        0.050825
     79 H26         -1.2060    -4.1090    -1.3760 hc         0 82        0.050825
     80 H27          0.0390    -3.3590     0.6010 hc         0 82        0.041950
     81 H28         -0.1000    -4.9800     1.3290 hc         0 82        0.041950
     82 H29          1.2600    -5.9680    -0.3880 hc         0 82        0.050825
     83 H30          1.1640    -4.5100    -1.4000 hc         0 82        0.050825
     84 H31          2.2440    -3.3940     0.8000 h1         0 82        0.040450
     85 H32          2.8510    -5.0550     1.0190 h1         0 82        0.040450
     86 H33          3.2540    -2.1830    -1.6640 h2         0 82        0.060075
     87 H34          5.0210    -1.6550     1.2010 h1         0 82        0.042200
     88 H35          6.5040    -1.2160     0.3200 h1         0 82        0.042200
     89 H36          4.5080    -0.1520    -1.2860 hc         0 82        0.057700
     90 H37          3.8610     0.1030     0.3500 hc         0 82        0.057700
     91 H38          6.4450     0.8740     0.7320 h1         0 82        0.042200
     92 H39          6.2430     1.3100    -0.9760 h1         0 82        0.042200
     93 H40          4.6110     6.5210    -0.7300 ha         0 82        0.139750
     94 H41          6.8520     7.1530     0.0560 ha         0 82        0.132750
     95 H42          8.3610     5.4460     0.9880 ha         0 82        0.132750
     96 H43          7.6160     3.1140     1.1760 ha         0 82        0.139000
     97 H44          4.2590    -6.6350     0.2970 ha         0 82        0.139750
     98 H45          6.5280    -7.1380     1.0950 ha         0 82        0.132750
     99 H46          8.2690    -5.3990     1.0630 ha         0 82        0.132750
    100 H47          7.7410    -3.1460     0.2210 ha         0 82        0.139000
    101 H48         -7.7600    -2.8330     0.2350 ha         0 82        0.139000
    102 H49         -8.4240    -5.0130     1.1610 ha         0 82        0.132750
    103 H50         -6.7820    -6.8480     1.2790 ha         0 82        0.132750
    104 H51         -4.4950    -6.5080     0.4480 ha         0 82        0.139750
    105 H52         -4.2680     6.5960     0.3680 ha         0 82        0.139750
    106 H53         -6.5210     7.0310     1.2490 ha         0 82        0.132750
    107 H54         -8.2200     5.2440     1.2230 ha         0 82        0.132750
    108 H55         -7.6530     3.0260     0.3290 ha         0 82        0.139000
@<TRIPOS>BOND
     1     1     2 1   
     2     2     3 1   
     3     2    32 1   
     4     2    57 1   
     5     3     4 1   
     6     3    34 1   
     7     4     5 1   
     8     4    58 1   
     9     4    59 1   
    10     5     6 1   
    11     5    60 1   
    12     5    61 1   
    13     6     7 1   
    14     6    62 1   
    15     6    63 1   
    16     7     8 1   
    17     7    64 1   
    18     7    65 1   
    19     8     9 1   
    20     8    66 1   
    21     8    67 1   
    22     9    10 1   
    23     9    52 1   
    24    10    11 1   
    25    10    12 1   
    26    10    68 1   
    27    12    13 1   
    28    12    51 1   
    29    13    14 1   
    30    13    69 1   
    31    13    70 1   
    32    14    15 1   
    33    14    71 1   
    34    14    72 1   
    35    15    16 1   
    36    15    73 1   
    37    15    74 1   
    38    16    17 1   
    39    16    46 1   
    40    17    18 1   
    41    17    19 1   
    42    17    75 1   
    43    19    20 1   
    44    19    45 1   
    45    20    21 1   
    46    20    76 1   
    47    20    77 1   
    48    21    22 1   
    49    21    78 1   
    50    21    79 1   
    51    22    23 1   
    52    22    80 1   
    53    22    81 1   
    54    23    24 1   
    55    23    82 1   
    56    23    83 1   
    57    24    25 1   
    58    24    84 1   
    59    24    85 1   
    60    25    26 1   
    61    25    40 1   
    62    26    27 1   
    63    26    28 1   
    64    26    86 1   
    65    28    29 1   
    66    28    39 1   
    67    29    30 1   
    68    29    87 1   
    69    29    88 1   
    70    30    31 1   
    71    30    89 1   
    72    30    90 1   
    73    31    32 1   
    74    31    91 1   
    75    31    92 1   
    76    32    33 1   
    77    33    34 ar  
    78    33    38 ar  
    79    34    35 ar  
    80    35    36 ar  
    81    35    93 1   
    82    36    37 ar  
    83    36    94 1   
    84    37    38 ar  
    85    37    95 1   
    86    38    96 1   
    87    39    40 ar  
    88    39    44 ar  
    89    40    41 ar  
    90    41    42 ar  
    91    41    97 1   
    92    42    43 ar  
    93    42    98 1   
    94    43    44 ar  
    95    43    99 1   
    96    44   100 1   
    97    45    46 ar  
    98    45    50 ar  
    99    46    47 ar  
   100    47    48 ar  
   101    47   101 1   
   102    48    49 ar  
   103    48   102 1   
   104    49    50 ar  
   105    49   103 1   
   106    50   104 1   
   107    51    52 ar  
   108    51    56 ar  
   109    52    53 ar  
   110    53    54 ar  
   111    53   105 1   
   112    54    55 ar  
   113    54   106 1   
   114    55    56 ar  
   115    55   107 1   
   116    56   108 1   
@<TRIPOS>SUBSTRUCTURE
     1 82          1 TEMP              0 ****  ****    0 ROOT
