@<TRIPOS>MOLECULE
13
   92   100     1     0     0
SMALL
bcc


@<TRIPOS>ATOM
      1 C1          -7.0250     1.0150    -0.0670 ca         1 13       -0.096000
      2 C2          -6.6890     2.3740     0.0130 ca         1 13       -0.096000
      3 C3          -6.5240     3.0040     1.2550 ca         1 13       -0.123300
      4 C4          -6.7320     2.2450     2.4160 ca         1 13       -0.096000
      5 C5          -7.0680     0.8850     2.3360 ca         1 13       -0.096000
      6 C6          -7.2050     0.2490     1.0940 ca         1 13       -0.123300
      7 C7          -7.4990    -1.2380     1.0070 c3         1 13        0.039600
      8 N1          -6.2340    -1.9780     0.7360 na         1 13        0.025900
      9 C8          -5.9190    -2.3440    -0.5270 cc         1 13       -0.015800
     10 C9          -4.6650    -2.8820    -0.8170 cd         1 13       -0.146000
     11 C10         -3.7170    -3.0670     0.1950 cd         1 13        0.096000
     12 C11         -4.1150    -2.7640     1.5020 cd         1 13       -0.146000
     13 C12         -5.3770    -2.2290     1.7520 cc         1 13       -0.015800
     14 C13         -2.3340    -3.4920    -0.1020 ca         1 13       -0.064000
     15 C14         -1.6840    -4.4920     0.6370 ca         1 13       -0.089000
     16 C15         -0.3330    -4.8120     0.4060 ca         1 13       -0.089000
     17 C16          0.4190    -4.1450    -0.5720 ca         1 13       -0.064000
     18 C17         -0.2460    -3.1760    -1.3400 ca         1 13       -0.089000
     19 C18         -1.5920    -2.8570    -1.1100 ca         1 13       -0.089000
     20 C19          1.8640    -4.3910    -0.7580 cc         1 13        0.096000
     21 C20          2.4250    -4.5640    -2.0280 cc         1 13       -0.146000
     22 C21          3.8080    -4.6520    -2.1880 cd         1 13       -0.015800
     23 N2           4.6310    -4.5550    -1.1190 na         1 13        0.025900
     24 C22          4.1190    -4.4810     0.1300 cd         1 13       -0.015800
     25 C23          2.7430    -4.3910     0.3300 cc         1 13       -0.146000
     26 C24          6.1050    -4.4660    -1.3170 c3         1 13        0.039600
     27 C25          6.5350    -3.0110    -1.2530 ca         1 13       -0.123300
     28 C26          6.3520    -2.1580    -2.3520 ca         1 13       -0.096000
     29 C27          6.6880    -0.7990    -2.2730 ca         1 13       -0.096000
     30 C28          7.2160    -0.2560    -1.0920 ca         1 13       -0.123300
     31 C29          7.4250    -1.1140    -0.0020 ca         1 13       -0.096000
     32 C30          7.0890    -2.4730    -0.0820 ca         1 13       -0.096000
     33 C31          7.5130     1.2290    -0.9840 c3         1 13        0.039600
     34 N3           6.2450     1.9710    -0.7370 na         1 13        0.025900
     35 C32          5.5900     2.5560    -1.7660 cc         1 13       -0.015800
     36 C33          4.3210     3.1040    -1.5790 cd         1 13       -0.146000
     37 C34          3.7090     3.0720    -0.3210 cd         1 13        0.096000
     38 C35          4.4580     2.5440     0.7370 cd         1 13       -0.146000
     39 C36          5.7230     2.0060     0.5100 cc         1 13       -0.015800
     40 C37          2.3110     3.5070    -0.1240 ca         1 13       -0.064000
     41 C38          1.9280     4.3340     0.9420 ca         1 13       -0.089000
     42 C39          0.5780     4.6550     1.1730 ca         1 13       -0.089000
     43 C40         -0.4420     4.1600     0.3460 ca         1 13       -0.064000
     44 C41         -0.0530     3.3680    -0.7450 ca         1 13       -0.089000
     45 C42          1.2930     3.0490    -0.9750 ca         1 13       -0.089000
     46 C43         -1.8720     4.3960     0.6330 cc         1 13        0.096000
     47 C44         -2.7690     4.7860    -0.3680 cc         1 13       -0.146000
     48 C45         -4.1370     4.8630    -0.1040 cd         1 13       -0.015800
     49 N4          -4.6200     4.5490     1.1190 na         1 13        0.025900
     50 C46         -3.7730     4.2590     2.1320 cd         1 13       -0.015800
     51 C47         -2.4000     4.1710     1.9080 cc         1 13       -0.146000
     52 C48         -6.0910     4.4560     1.3410 c3         1 13        0.039600
     53 H1          -7.1550     0.5730    -1.0550 ha         1 13        0.158000
     54 H2          -6.5720     2.9320    -0.9170 ha         1 13        0.158000
     55 H3          -6.6500     2.6990     3.4040 ha         1 13        0.158000
     56 H4          -7.2340     0.3390     3.2660 ha         1 13        0.158000
     57 H5          -8.2140    -1.4530     0.2050 h1         1 13        0.123700
     58 H6          -7.9200    -1.6280     1.9410 h1         1 13        0.123700
     59 H7          -6.6580    -2.1730    -1.3050 h4         1 13        0.215500
     60 H8          -4.4300    -3.1440    -1.8490 ha         1 13        0.200500
     61 H9          -3.4300    -2.9050     2.3370 ha         1 13        0.200500
     62 H10         -5.6920    -1.9610     2.7570 h4         1 13        0.215500
     63 H11         -2.2170    -5.0430     1.4110 ha         1 13        0.161500
     64 H12          0.1190    -5.5970     1.0120 ha         1 13        0.161500
     65 H13          0.2850    -2.6250    -2.1150 ha         1 13        0.161500
     66 H14         -2.0420    -2.0730    -1.7170 ha         1 13        0.161500
     67 H15          1.7880    -4.6190    -2.9110 ha         1 13        0.200500
     68 H16          4.2600    -4.7640    -3.1700 h4         1 13        0.215500
     69 H17          4.8170    -4.4540     0.9620 h4         1 13        0.215500
     70 H18          2.3660    -4.2800     1.3470 ha         1 13        0.200500
     71 H19          6.5840    -5.0690    -0.5370 h1         1 13        0.123700
     72 H20          6.3620    -4.9110    -2.2850 h1         1 13        0.123700
     73 H21          5.9580    -2.5380    -3.2950 ha         1 13        0.158000
     74 H22          6.5410    -0.1790    -3.1570 ha         1 13        0.158000
     75 H23          7.8660    -0.7450     0.9240 ha         1 13        0.158000
     76 H24          7.2820    -3.1050     0.7860 ha         1 13        0.158000
     77 H25          7.9730     1.6080    -1.9030 h1         1 13        0.123700
     78 H26          8.1960     1.4510    -0.1550 h1         1 13        0.123700
     79 H27          6.0690     2.5520    -2.7420 h4         1 13        0.215500
     80 H28          3.8060     3.5450    -2.4330 ha         1 13        0.200500
     81 H29          4.0450     2.5090     1.7440 ha         1 13        0.200500
     82 H30          6.3060     1.5660     1.3150 h4         1 13        0.215500
     83 H31          2.6770     4.7470     1.6180 ha         1 13        0.161500
     84 H32          0.3410     5.3020     2.0170 ha         1 13        0.161500
     85 H33         -0.7980     2.9560    -1.4230 ha         1 13        0.161500
     86 H34          1.5280     2.4040    -1.8200 ha         1 13        0.161500
     87 H35         -2.4120     5.0200    -1.3700 ha         1 13        0.200500
     88 H36         -4.8490     5.1430    -0.8760 h4         1 13        0.215500
     89 H37         -4.2030     4.0590     3.1100 h4         1 13        0.215500
     90 H38         -1.7510     3.8840     2.7350 ha         1 13        0.200500
     91 H39         -6.6030     5.0660     0.5870 h1         1 13        0.123700
     92 H40         -6.3080     4.8920     2.3230 h1         1 13        0.123700
@<TRIPOS>BOND
     1     1     2 ar  
     2     1     6 ar  
     3     1    53 1   
     4     2     3 ar  
     5     2    54 1   
     6     3     4 ar  
     7     3    52 1   
     8     4     5 ar  
     9     4    55 1   
    10     5     6 ar  
    11     5    56 1   
    12     6     7 1   
    13     7     8 1   
    14     7    57 1   
    15     7    58 1   
    16     8     9 1   
    17     8    13 1   
    18     9    10 2   
    19     9    59 1   
    20    10    11 1   
    21    10    60 1   
    22    11    12 1   
    23    11    14 2   
    24    12    13 2   
    25    12    61 1   
    26    13    62 1   
    27    14    15 ar  
    28    14    19 ar  
    29    15    16 ar  
    30    15    63 1   
    31    16    17 ar  
    32    16    64 1   
    33    17    18 ar  
    34    17    20 2   
    35    18    19 ar  
    36    18    65 1   
    37    19    66 1   
    38    20    21 1   
    39    20    25 1   
    40    21    22 2   
    41    21    67 1   
    42    22    23 1   
    43    22    68 1   
    44    23    24 1   
    45    23    26 1   
    46    24    25 2   
    47    24    69 1   
    48    25    70 1   
    49    26    27 1   
    50    26    71 1   
    51    26    72 1   
    52    27    28 ar  
    53    27    32 ar  
    54    28    29 ar  
    55    28    73 1   
    56    29    30 ar  
    57    29    74 1   
    58    30    31 ar  
    59    30    33 1   
    60    31    32 ar  
    61    31    75 1   
    62    32    76 1   
    63    33    34 1   
    64    33    77 1   
    65    33    78 1   
    66    34    35 1   
    67    34    39 1   
    68    35    36 2   
    69    35    79 1   
    70    36    37 1   
    71    36    80 1   
    72    37    38 1   
    73    37    40 2   
    74    38    39 2   
    75    38    81 1   
    76    39    82 1   
    77    40    41 ar  
    78    40    45 ar  
    79    41    42 ar  
    80    41    83 1   
    81    42    43 ar  
    82    42    84 1   
    83    43    44 ar  
    84    43    46 2   
    85    44    45 ar  
    86    44    85 1   
    87    45    86 1   
    88    46    47 1   
    89    46    51 1   
    90    47    48 2   
    91    47    87 1   
    92    48    49 1   
    93    48    88 1   
    94    49    50 1   
    95    49    52 1   
    96    50    51 2   
    97    50    89 1   
    98    51    90 1   
    99    52    91 1   
   100    52    92 1   
@<TRIPOS>SUBSTRUCTURE
     1 13          1 TEMP              0 ****  ****    0 ROOT
