@<TRIPOS>MOLECULE
158
  156   164     1     0     0
SMALL
bcc


@<TRIPOS>ATOM
      1 O            9.7410     0.8340     3.4530 oh         0 158      -0.628300
      2 C            9.4810    -0.5590     3.6330 c3         0 158       0.334400
      3 O1           8.6180    -0.7420     4.7570 oh         0 158      -0.628300
      4 C1           8.8090    -1.1190     2.3780 c3         0 158       0.078900
      5 O2           7.6570    -0.3330     2.0640 os         0 158      -0.348400
      6 C2           6.7720    -1.1610     1.4500 ca         0 158       0.114100
      7 C3           7.1900    -2.4380     1.0920 ca         0 158      -0.178500
      8 C4           6.2910    -3.3400     0.5690 ca         0 158      -0.097500
      9 C5           4.9680    -2.9630     0.3870 cp         0 158      -0.049500
     10 C6           4.5820    -1.6470     0.6200 ca         0 158      -0.098500
     11 C7           5.4790    -0.7410     1.1750 ca         0 158      -0.083300
     12 C8           4.9920     0.6240     1.5260 c3         0 158       0.011200
     13 C9           5.2720     1.7970     0.6530 ca         0 158      -0.083300
     14 C10          4.1920     2.6280     0.3550 ca         0 158      -0.098500
     15 C11          4.3590     3.7660    -0.4080 cp         0 158      -0.049500
     16 C12          5.6330     4.1160    -0.8680 ca         0 158      -0.097500
     17 C13          6.6950     3.2790    -0.6090 ca         0 158      -0.178500
     18 C14          6.5160     2.1120     0.1290 ca         0 158       0.114100
     19 O3           7.5890     1.2940     0.2820 os         0 158      -0.348400
     20 C15          8.6200     1.8010    -0.5670 c3         0 158       0.078900
     21 C16          9.5640     0.6630    -0.9590 c3         0 158       0.334400
     22 O4          10.1270     0.0840     0.2200 oh         0 158      -0.628300
     23 O5           8.8360    -0.3340    -1.6780 oh         0 158      -0.628300
     24 C17          3.2010     4.6000    -0.8300 cp         0 158      -0.050000
     25 C18          3.3770     5.8930    -1.3100 ca         0 158      -0.097000
     26 C19          2.2880     6.5960    -1.7870 ca         0 158      -0.176000
     27 C20          1.0250     6.0120    -1.7920 ca         0 158       0.113600
     28 O6          -0.0140     6.6840    -2.3580 os         0 158      -0.348900
     29 C21          0.5080     7.9230    -2.8410 c3         0 158       0.079900
     30 C22         -0.6150     8.7310    -3.4920 c3         0 158       0.322400
     31 O7          -1.1660     7.9890    -4.5820 oh         0 158      -0.624550
     32 O8          -1.6370     8.9890    -2.5270 oh         0 158      -0.624550
     33 C23          0.8290     4.7590    -1.2310 ca         0 158      -0.082800
     34 C24         -0.4750     4.0640    -1.1610 c3         0 158       0.011200
     35 C25         -1.6690     4.6240    -0.4840 ca         0 158      -0.076300
     36 C26         -2.7020     3.7040    -0.2890 ca         0 158      -0.105500
     37 C27         -3.8890     4.0880     0.2990 cp         0 158      -0.041500
     38 C28         -4.1020     5.4240     0.6340 ca         0 158      -0.105500
     39 C29         -3.0630     6.3210     0.4950 ca         0 158      -0.163000
     40 C30         -1.8310     5.9090    -0.0150 ca         0 158       0.102600
     41 O9          -0.7950     6.7860     0.0310 os         0 158      -0.324400
     42 C31         -1.2700     7.9520     0.7070 c3         0 158       0.080900
     43 C32         -0.1460     8.9470     0.8420 c          0 158       0.636600
     44 O10         -0.3620    10.1250     1.4490 oh         0 158      -0.606600
     45 O11          0.9490     8.6850     0.4040 o          0 158      -0.535500
     46 C33         -4.8800     3.0500     0.6840 cp         0 158      -0.049500
     47 C34         -6.2100     3.3540     0.9450 ca         0 158      -0.101000
     48 C35         -7.0470     2.3600     1.4110 ca         0 158      -0.173500
     49 C36         -6.5620     1.0760     1.6360 ca         0 158       0.109600
     50 O12         -7.3730     0.1540     2.2210 os         0 158      -0.316900
     51 C37         -8.5600     0.8430     2.6200 c3         0 158       0.078900
     52 C38         -9.4680    -0.1070     3.3580 c          0 158       0.638100
     53 O13        -10.6490     0.3220     3.8290 oh         0 158      -0.609100
     54 O14         -9.1320    -1.2560     3.5260 o          0 158      -0.540500
     55 C39         -5.2690     0.7450     1.2720 ca         0 158      -0.067800
     56 C40         -4.6740    -0.6110     1.4480 c3         0 158       0.001200
     57 C41         -5.0510    -1.7600     0.5940 ca         0 158      -0.067800
     58 C42         -4.0200    -2.6560     0.3100 ca         0 158      -0.101000
     59 C43         -4.2540    -3.8000    -0.4290 cp         0 158      -0.049500
     60 C44         -5.5460    -4.0950    -0.8640 ca         0 158      -0.101000
     61 C45         -6.5540    -3.1830    -0.6340 ca         0 158      -0.173500
     62 C46         -6.3020    -2.0000     0.0560 ca         0 158       0.109600
     63 O15         -7.3010    -1.0830     0.1230 os         0 158      -0.316900
     64 C47         -8.4180    -1.6380    -0.5740 c3         0 158       0.078900
     65 C48         -9.5220    -0.6150    -0.6510 c          0 158       0.638100
     66 O16        -10.6710    -0.9120    -1.2780 oh         0 158      -0.609100
     67 O17         -9.3730     0.4730    -0.1470 o          0 158      -0.540500
     68 C49         -3.1220    -4.6680    -0.8550 cp         0 158      -0.041500
     69 C50         -3.3070    -5.9820    -1.2580 ca         0 158      -0.105500
     70 C51         -2.2310    -6.7020    -1.7450 ca         0 158      -0.163000
     71 C52         -0.9760    -6.1080    -1.8450 ca         0 158       0.102600
     72 O18          0.0410    -6.7950    -2.4300 os         0 158      -0.324400
     73 C53         -0.4520    -8.1080    -2.7050 c3         0 158       0.080900
     74 C54          0.6610    -8.9560    -3.2660 c          0 158       0.636600
     75 O19          0.4270   -10.2350    -3.6000 oh         0 158      -0.606600
     76 O20          1.7630    -8.4840    -3.4150 o          0 158      -0.535500
     77 C55         -0.7680    -4.8240    -1.3620 ca         0 158      -0.076300
     78 C56          0.5260    -4.1100    -1.4010 c3         0 158       0.011200
     79 C57          1.7260    -4.5960    -0.6740 ca         0 158      -0.082800
     80 C58          2.7380    -3.6460    -0.5010 ca         0 158      -0.099000
     81 C59          3.9260    -3.9850     0.1010 cp         0 158      -0.050000
     82 C60          4.1450    -5.3020     0.5220 ca         0 158      -0.097000
     83 C61          3.1260    -6.2210     0.4130 ca         0 158      -0.176000
     84 C62          1.8980    -5.8540    -0.1380 ca         0 158       0.113600
     85 O21          0.8760    -6.7460    -0.0670 os         0 158      -0.348900
     86 C63          0.2590    -6.5670     1.2090 c3         0 158       0.079900
     87 C64         -0.6180    -7.7800     1.5260 c3         0 158       0.322400
     88 O22         -1.5430    -7.9910     0.4580 oh         0 158      -0.624550
     89 O23          0.2070    -8.9370     1.6780 oh         0 158      -0.624550
     90 C65         -1.8470    -4.1120    -0.8590 ca         0 158      -0.105500
     91 C66         -4.4290     1.7370     0.7880 ca         0 158      -0.101000
     92 C67          1.9270     4.0600    -0.7450 ca         0 158      -0.099000
     93 H           10.0920     1.1640     4.2920 ho         0 158       0.426000
     94 H1          10.4200    -1.0850     3.8070 h2         0 158       0.096700
     95 H2           7.8010    -0.2620     4.5630 ho         0 158       0.426000
     96 H3           9.5100    -1.0850     1.5440 h1         0 158       0.064700
     97 H4           8.5070    -2.1510     2.5570 h1         0 158       0.064700
     98 H5           8.2270    -2.7200     1.2210 ha         0 158       0.142000
     99 H6           6.6160    -4.3330     0.2930 ha         0 158       0.139500
    100 H7           3.5860    -1.3160     0.3690 ha         0 158       0.142000
    101 H8           3.8960     0.5550     1.6330 hc         0 158       0.076700
    102 H9           5.3680     0.8580     2.5290 hc         0 158       0.076700
    103 H10          3.2140     2.3610     0.7320 ha         0 158       0.142000
    104 H11          5.7780     5.0300    -1.4220 ha         0 158       0.139500
    105 H12          7.6790     3.5250    -0.9840 ha         0 158       0.142000
    106 H13          8.1730     2.2280    -1.4660 h1         0 158       0.064700
    107 H14          9.1800     2.5720    -0.0380 h1         0 158       0.064700
    108 H15         10.3630     1.0540    -1.5890 h2         0 158       0.096700
    109 H16         10.7750    -0.5710    -0.0720 ho         0 158       0.426000
    110 H17          8.1410    -0.6530    -1.0870 ho         0 158       0.426000
    111 H18          4.3560     6.3490    -1.2950 ha         0 158       0.138000
    112 H19          2.4180     7.6070    -2.1550 ha         0 158       0.147000
    113 H20          0.9280     8.4890    -2.0090 h1         0 158       0.074700
    114 H21          1.2880     7.7260    -3.5770 h1         0 158       0.074700
    115 H22         -0.2160     9.6760    -3.8610 h2         0 158       0.089700
    116 H23         -1.8680     8.5330    -4.9640 ho         0 158       0.422250
    117 H24         -1.9630     8.1290    -2.2280 ho         0 158       0.422250
    118 H25         -0.7630     3.8150    -2.1840 hc         0 158       0.075450
    119 H26         -0.2740     3.0950    -0.6730 hc         0 158       0.075450
    120 H27         -2.5470     2.6820    -0.6030 ha         0 158       0.144000
    121 H28         -5.0660     5.7510     0.9910 ha         0 158       0.139500
    122 H29         -3.2000     7.3510     0.7910 ha         0 158       0.143000
    123 H30         -2.0830     8.3980     0.1350 h1         0 158       0.088450
    124 H31         -1.6320     7.6760     1.6970 h1         0 158       0.088450
    125 H32          0.3590    10.7630     1.5360 ho         0 158       0.448500
    126 H33         -6.5820     4.3530     0.7740 ha         0 158       0.138000
    127 H34         -8.0900     2.5830     1.6020 ha         0 158       0.139500
    128 H35         -8.2960     1.6740     3.2730 h1         0 158       0.090450
    129 H36         -9.0730     1.2230     1.7360 h1         0 158       0.090450
    130 H37        -11.2310    -0.2870     4.3030 ho         0 158       0.448000
    131 H38         -3.5810    -0.4900     1.3490 hc         0 158       0.086200
    132 H39         -4.8300    -0.9050     2.4910 hc         0 158       0.086200
    133 H40         -3.0280    -2.4290     0.6770 ha         0 158       0.142000
    134 H41         -5.7480    -5.0270    -1.3720 ha         0 158       0.138000
    135 H42         -7.5520    -3.3830    -0.9970 ha         0 158       0.139500
    136 H43         -8.1140    -1.9200    -1.5820 h1         0 158       0.090450
    137 H44         -8.7770    -2.5200    -0.0420 h1         0 158       0.090450
    138 H45        -11.3790    -0.2550    -1.3270 ho         0 158       0.448000
    139 H46         -4.2790    -6.4450    -1.1780 ha         0 158       0.139500
    140 H47         -2.3630    -7.7360    -2.0430 ha         0 158       0.143000
    141 H48         -0.8220    -8.5580    -1.7830 h1         0 158       0.088450
    142 H49         -1.2630    -8.0470    -3.4300 h1         0 158       0.088450
    143 H50          1.1410   -10.7790    -3.9590 ho         0 158       0.448500
    144 H51          0.8010    -3.9920    -2.4540 hc         0 158       0.075450
    145 H52          0.3270    -3.0900    -1.0350 hc         0 158       0.075450
    146 H53          2.5630    -2.6380    -0.8490 ha         0 158       0.142500
    147 H54          5.1060    -5.5900     0.9180 ha         0 158       0.138000
    148 H55          3.2720    -7.2310     0.7630 ha         0 158       0.147000
    149 H56          1.0290    -6.4660     1.9740 h1         0 158       0.074700
    150 H57         -0.3560    -5.6680     1.1920 h1         0 158       0.074700
    151 H58         -1.1660    -7.6000     2.4510 h2         0 158       0.089700
    152 H59         -2.0750    -8.7620     0.6970 ho         0 158       0.422250
    153 H60          0.6100    -9.1080     0.8160 ho         0 158       0.422250
    154 H61         -1.6860    -3.1190    -0.4690 ha         0 158       0.144000
    155 H62         -3.4210     1.4780     0.5020 ha         0 158       0.142000
    156 H63          1.7780     3.0830    -0.3110 ha         0 158       0.142500
@<TRIPOS>BOND
     1     1     2 1   
     2     1    93 1   
     3     2     3 1   
     4     2     4 1   
     5     2    94 1   
     6     3    95 1   
     7     4     5 1   
     8     4    96 1   
     9     4    97 1   
    10     5     6 1   
    11     6     7 ar  
    12     6    11 ar  
    13     7     8 ar  
    14     7    98 1   
    15     8     9 ar  
    16     8    99 1   
    17     9    10 ar  
    18     9    81 1   
    19    10    11 ar  
    20    10   100 1   
    21    11    12 1   
    22    12    13 1   
    23    12   101 1   
    24    12   102 1   
    25    13    14 ar  
    26    13    18 ar  
    27    14    15 ar  
    28    14   103 1   
    29    15    16 ar  
    30    15    24 1   
    31    16    17 ar  
    32    16   104 1   
    33    17    18 ar  
    34    17   105 1   
    35    18    19 1   
    36    19    20 1   
    37    20    21 1   
    38    20   106 1   
    39    20   107 1   
    40    21    22 1   
    41    21    23 1   
    42    21   108 1   
    43    22   109 1   
    44    23   110 1   
    45    24    25 ar  
    46    24    92 ar  
    47    25    26 ar  
    48    25   111 1   
    49    26    27 ar  
    50    26   112 1   
    51    27    28 1   
    52    27    33 ar  
    53    28    29 1   
    54    29    30 1   
    55    29   113 1   
    56    29   114 1   
    57    30    31 1   
    58    30    32 1   
    59    30   115 1   
    60    31   116 1   
    61    32   117 1   
    62    33    34 1   
    63    33    92 ar  
    64    34    35 1   
    65    34   118 1   
    66    34   119 1   
    67    35    36 ar  
    68    35    40 ar  
    69    36    37 ar  
    70    36   120 1   
    71    37    38 ar  
    72    37    46 1   
    73    38    39 ar  
    74    38   121 1   
    75    39    40 ar  
    76    39   122 1   
    77    40    41 1   
    78    41    42 1   
    79    42    43 1   
    80    42   123 1   
    81    42   124 1   
    82    43    44 1   
    83    43    45 2   
    84    44   125 1   
    85    46    47 ar  
    86    46    91 ar  
    87    47    48 ar  
    88    47   126 1   
    89    48    49 ar  
    90    48   127 1   
    91    49    50 1   
    92    49    55 ar  
    93    50    51 1   
    94    51    52 1   
    95    51   128 1   
    96    51   129 1   
    97    52    53 1   
    98    52    54 2   
    99    53   130 1   
   100    55    56 1   
   101    55    91 ar  
   102    56    57 1   
   103    56   131 1   
   104    56   132 1   
   105    57    58 ar  
   106    57    62 ar  
   107    58    59 ar  
   108    58   133 1   
   109    59    60 ar  
   110    59    68 1   
   111    60    61 ar  
   112    60   134 1   
   113    61    62 ar  
   114    61   135 1   
   115    62    63 1   
   116    63    64 1   
   117    64    65 1   
   118    64   136 1   
   119    64   137 1   
   120    65    66 1   
   121    65    67 2   
   122    66   138 1   
   123    68    69 ar  
   124    68    90 ar  
   125    69    70 ar  
   126    69   139 1   
   127    70    71 ar  
   128    70   140 1   
   129    71    72 1   
   130    71    77 ar  
   131    72    73 1   
   132    73    74 1   
   133    73   141 1   
   134    73   142 1   
   135    74    75 1   
   136    74    76 2   
   137    75   143 1   
   138    77    78 1   
   139    77    90 ar  
   140    78    79 1   
   141    78   144 1   
   142    78   145 1   
   143    79    80 ar  
   144    79    84 ar  
   145    80    81 ar  
   146    80   146 1   
   147    81    82 ar  
   148    82    83 ar  
   149    82   147 1   
   150    83    84 ar  
   151    83   148 1   
   152    84    85 1   
   153    85    86 1   
   154    86    87 1   
   155    86   149 1   
   156    86   150 1   
   157    87    88 1   
   158    87    89 1   
   159    87   151 1   
   160    88   152 1   
   161    89   153 1   
   162    90   154 1   
   163    91   155 1   
   164    92   156 1   
@<TRIPOS>SUBSTRUCTURE
     1 158         1 TEMP              0 ****  ****    0 ROOT
