@<TRIPOS>MOLECULE
9
   86    92     1     0     0
SMALL
bcc


@<TRIPOS>ATOM
      1 O1          -1.1660     3.4080     1.1150 o          1 9        -0.519800
      2 C1          -1.8120     3.5800     2.1480 c2         1 9         0.662800
      3 N1          -1.2990     4.0640     3.3480 n          1 9        -0.433500
      4 N2           0.0550     4.0240     3.5990 ne         1 9        -0.131100
      5 C2           0.8180     4.5610     2.6980 ce         1 9        -0.001900
      6 C3           2.2830     4.3720     2.7270 cd         1 9         0.087000
      7 C4           2.8950     3.6900     3.7730 cd         1 9        -0.129250
      8 C5           4.2440     3.3740     3.6730 cc         1 9         0.083500
      9 N3           4.9510     3.7030     2.5640 na         1 9        -0.360700
     10 C6           4.3850     4.4440     1.5810 cc         1 9         0.083500
     11 C7           3.0390     4.7880     1.6360 cd         1 9        -0.129250
     12 C8           6.3370     3.1880     2.3980 c3         1 9         0.216100
     13 C9           6.2920     1.7950     1.7950 ca         1 9        -0.122800
     14 C10          6.2800     0.6590     2.6170 ca         1 9        -0.096250
     15 C11          6.2170    -0.6280     2.0650 ca         1 9        -0.096250
     16 C12          6.1570    -0.8190     0.6760 ca         1 9        -0.122800
     17 C13          6.1790     0.3160    -0.1470 ca         1 9        -0.096250
     18 C14          6.2390     1.6060     0.4060 ca         1 9        -0.096250
     19 C15          6.1720    -2.2240     0.1080 c3         1 9         0.038600
     20 N4           5.1260    -2.4380    -0.9350 na         1 9         0.029400
     21 C16          5.4980    -2.7130    -2.2080 ca         1 9        -0.022800
     22 C17          4.5410    -2.9540    -3.1890 ca         1 9        -0.129250
     23 C18          3.1890    -2.9180    -2.8540 ca         1 9         0.003100
     24 C19          2.1950    -3.1530    -3.9250 ce         1 9         0.358300
     25 N5           0.9040    -3.0870    -3.7630 n2         1 9        -0.410800
     26 N6           0.2460    -3.2800    -4.9560 n          1 9        -0.300900
     27 C20         -1.0870    -3.0590    -5.2110 c2         1 9         0.662800
     28 O2          -1.4400    -2.8500    -6.3710 o          1 9        -0.519800
     29 C21         -2.1440    -3.1070    -4.1720 cc         1 9        -0.016000
     30 C22         -2.0410    -3.8270    -2.9880 cc         1 9        -0.103000
     31 C23         -3.1640    -3.9570    -2.1670 cd         1 9         0.082000
     32 N7          -4.3490    -3.3920    -2.5060 na         1 9        -0.343700
     33 C24         -4.4640    -2.6870    -3.6550 cd         1 9         0.082000
     34 C25         -3.3740    -2.5260    -4.4970 cc         1 9        -0.103000
     35 C26         -5.5600    -3.6130    -1.6660 c3         1 9         0.214100
     36 C27         -5.8930    -2.3900    -0.8370 ca         1 9        -0.125800
     37 C28         -5.2800    -2.1720     0.4040 ca         1 9        -0.094500
     38 C29         -5.6140    -1.0560     1.1840 ca         1 9        -0.094500
     39 C30         -6.5570    -0.1150     0.7370 ca         1 9        -0.125800
     40 C31         -7.1720    -0.3360    -0.5030 ca         1 9        -0.094500
     41 C32         -6.8450    -1.4580    -1.2790 ca         1 9        -0.094500
     42 C33         -6.9150     1.1030     1.5710 c3         1 9         0.214100
     43 N8          -5.6980     1.9320     1.8080 na         1 9        -0.343700
     44 C34         -5.1040     1.9360     3.0260 cc         1 9         0.082000
     45 C35         -3.8570     2.5340     3.2080 cd         1 9        -0.103000
     46 C36         -3.2370     3.1530     2.1250 cd         1 9        -0.016000
     47 C37         -3.9130     3.2210     0.9050 cd         1 9        -0.103000
     48 C38         -5.1530     2.6130     0.7730 cc         1 9         0.082000
     49 C39          2.8190    -2.6490    -1.5420 ca         1 9        -0.129250
     50 C40          3.8130    -2.4200    -0.5920 ca         1 9        -0.022800
     51 H1          -1.8590     4.0310     4.1950 hn         1 9         0.352000
     52 H2           0.4080     5.1340     1.8450 h4         1 9         0.181000
     53 H3           2.3260     3.3750     4.6450 ha         1 9         0.207500
     54 H4           4.7570     2.8210     4.4550 h4         1 9         0.215000
     55 H5           5.0080     4.7220     0.7350 h4         1 9         0.215000
     56 H6           2.5880     5.3390     0.8140 ha         1 9         0.207500
     57 H7           6.8220     3.1890     3.3810 h1         1 9         0.122450
     58 H8           6.8940     3.8810     1.7570 h1         1 9         0.122450
     59 H9           6.3510     0.7510     3.7020 ha         1 9         0.158750
     60 H10          6.2480    -1.4810     2.7460 ha         1 9         0.158750
     61 H11          6.1820     0.2240    -1.2330 ha         1 9         0.158750
     62 H12          6.2770     2.4570    -0.2740 ha         1 9         0.158750
     63 H13          7.1570    -2.4360    -0.3220 h1         1 9         0.122450
     64 H14          5.9730    -2.9740     0.8830 h1         1 9         0.122450
     65 H15          6.5620    -2.7400    -2.4360 h4         1 9         0.215000
     66 H16          4.8660    -3.1690    -4.2070 ha         1 9         0.207500
     67 H17          2.6310    -3.3770    -4.9190 h4         1 9         0.051800
     68 H18          0.7890    -3.2540    -5.8210 hn         1 9         0.352000
     69 H19         -1.1180    -4.3400    -2.7260 ha         1 9         0.214000
     70 H20         -3.1290    -4.5430    -1.2520 h4         1 9         0.222500
     71 H21         -5.4390    -2.2800    -3.9090 h4         1 9         0.222500
     72 H22         -3.5020    -1.9880    -5.4370 ha         1 9         0.214000
     73 H23         -6.3830    -3.8760    -2.3410 h1         1 9         0.127450
     74 H24         -5.3850    -4.4820    -1.0220 h1         1 9         0.127450
     75 H25         -4.5590    -2.8860     0.8030 ha         1 9         0.161250
     76 H26         -5.1370    -0.9500     2.1570 ha         1 9         0.161250
     77 H27         -7.9350     0.3480    -0.8800 ha         1 9         0.161250
     78 H28         -7.3750    -1.6010    -2.2220 ha         1 9         0.161250
     79 H29         -7.3370     0.7970     2.5340 h1         1 9         0.127450
     80 H30         -7.6430     1.7500     1.0680 h1         1 9         0.127450
     81 H31         -5.6040     1.4070     3.8340 h4         1 9         0.222500
     82 H32         -3.3670     2.4380     4.1740 ha         1 9         0.214000
     83 H33         -3.4530     3.7050     0.0430 ha         1 9         0.214000
     84 H34         -5.6920     2.6160    -0.1720 h4         1 9         0.222500
     85 H35          1.7710    -2.6210    -1.2550 ha         1 9         0.207500
     86 H36          3.5730    -2.2190     0.4490 h4         1 9         0.215000
@<TRIPOS>BOND
     1     1     2 1   
     2     2     3 1   
     3     2    46 2   
     4     3     4 2   
     5     3    51 1   
     6     4     5 1   
     7     5     6 2   
     8     5    52 1   
     9     6     7 1   
    10     6    11 1   
    11     7     8 2   
    12     7    53 1   
    13     8     9 1   
    14     8    54 1   
    15     9    10 1   
    16     9    12 1   
    17    10    11 2   
    18    10    55 1   
    19    11    56 1   
    20    12    13 1   
    21    12    57 1   
    22    12    58 1   
    23    13    14 ar  
    24    13    18 ar  
    25    14    15 ar  
    26    14    59 1   
    27    15    16 ar  
    28    15    60 1   
    29    16    17 ar  
    30    16    19 1   
    31    17    18 ar  
    32    17    61 1   
    33    18    62 1   
    34    19    20 1   
    35    19    63 1   
    36    19    64 1   
    37    20    21 1   
    38    20    50 2   
    39    21    22 ar  
    40    21    65 1   
    41    22    23 ar  
    42    22    66 1   
    43    23    24 1   
    44    23    49 ar  
    45    24    25 2   
    46    24    67 1   
    47    25    26 1   
    48    26    27 1   
    49    26    68 1   
    50    27    28 1   
    51    27    29 2   
    52    29    30 1   
    53    29    34 1   
    54    30    31 2   
    55    30    69 1   
    56    31    32 1   
    57    31    70 1   
    58    32    33 1   
    59    32    35 1   
    60    33    34 2   
    61    33    71 1   
    62    34    72 1   
    63    35    36 1   
    64    35    73 1   
    65    35    74 1   
    66    36    37 ar  
    67    36    41 ar  
    68    37    38 ar  
    69    37    75 1   
    70    38    39 ar  
    71    38    76 1   
    72    39    40 ar  
    73    39    42 1   
    74    40    41 ar  
    75    40    77 1   
    76    41    78 1   
    77    42    43 1   
    78    42    79 1   
    79    42    80 1   
    80    43    44 1   
    81    43    48 1   
    82    44    45 2   
    83    44    81 1   
    84    45    46 1   
    85    45    82 1   
    86    46    47 1   
    87    47    48 2   
    88    47    83 1   
    89    48    84 1   
    90    49    50 ar  
    91    49    85 1   
    92    50    86 1   
@<TRIPOS>SUBSTRUCTURE
     1 9           1 TEMP              0 ****  ****    0 ROOT
