@<TRIPOS>MOLECULE
154
   84    89     1     0     0
SMALL
bcc


@<TRIPOS>ATOM
      1 C            3.8410    -4.1900    -2.6460 c3         0 154      -0.036050
      2 C1           3.9220    -3.7530    -1.2060 cc         0 154      -0.051350
      3 C2           4.4140    -2.5530    -0.7760 cd         0 154      -0.092600
      4 S            5.0480    -1.0170    -1.4160 ss         0 154      -0.074800
      5 C3           4.9380     0.0990    -0.0070 cc         0 154       0.055300
      6 C4           4.7010     1.3880     0.0260 cd         0 154       0.055300
      7 S1           4.4140     2.5440    -1.3250 ss         0 154      -0.074800
      8 C5           3.2420     3.6950    -0.6330 cc         0 154      -0.092600
      9 C6           2.3160     4.6300    -1.0220 cd         0 154      -0.051350
     10 C7           2.0300     5.0230    -2.4480 c3         0 154      -0.036050
     11 N            1.6830     5.1610     0.0930 na         0 154      -0.055600
     12 C8           0.5280     6.0450     0.1100 c3         0 154       0.003800
     13 C9          -0.6760     5.3070     0.6900 c3         0 154       0.105900
     14 O           -1.7450     5.2140    -0.2470 os         0 154      -0.419600
     15 C10         -2.8000     4.4940     0.3980 c3         0 154       0.103900
     16 C11         -4.0110     4.4030    -0.5330 c3         0 154       0.102900
     17 O1          -4.6450     3.1300    -0.4060 os         0 154      -0.422100
     18 C12         -6.0400     3.3710    -0.2110 c3         0 154       0.109900
     19 C13         -6.8540     2.3200    -0.9690 c3         0 154       0.092900
     20 O2          -7.7880     1.7060    -0.0790 os         0 154      -0.341400
     21 C14         -7.4510     0.3900    -0.0080 ca         0 154       0.086100
     22 C15         -7.2090    -0.2040     1.2210 ca         0 154      -0.137500
     23 C16         -6.8430    -1.5350     1.2840 ca         0 154      -0.137500
     24 C17         -6.7290    -2.2800     0.1180 ca         0 154       0.086100
     25 O3          -6.3240    -3.5750     0.1740 os         0 154      -0.341400
     26 C18         -5.0420    -3.5650     0.8080 c3         0 154       0.092900
     27 C19         -4.2600    -4.8160     0.3900 c3         0 154       0.109900
     28 O4          -2.9850    -4.4200    -0.1230 os         0 154      -0.422100
     29 C20         -1.9900    -5.1390     0.6100 c3         0 154       0.102900
     30 C21         -0.8840    -5.5790    -0.3540 c3         0 154       0.103900
     31 O5           0.3930    -5.4600     0.2820 os         0 154      -0.419600
     32 C22          1.3830    -5.5560    -0.7430 c3         0 154       0.105900
     33 C23          2.7730    -5.7690    -0.1310 c3         0 154       0.003800
     34 N1           3.5010    -4.5110    -0.1150 na         0 154      -0.055600
     35 C24          3.8770    -3.7870     1.0100 cc         0 154      -0.051350
     36 C25          3.7310    -4.2610     2.4330 c3         0 154      -0.036050
     37 C26          4.4130    -2.5830     0.6330 cd         0 154      -0.092600
     38 S2           5.0640    -1.0840     1.3470 ss         0 154      -0.074800
     39 C27         -7.0080    -1.6940    -1.1080 ca         0 154      -0.137500
     40 C28         -7.3680    -0.3610    -1.1710 ca         0 154      -0.137500
     41 C29          2.3190     4.5910     1.1950 cd         0 154      -0.051350
     42 C30          2.0400     4.9420     2.6330 c3         0 154      -0.036050
     43 C31          3.2350     3.6660     0.7750 cc         0 154      -0.092600
     44 S3           4.3660     2.4590     1.4330 ss         0 154      -0.074800
     45 H            4.7600    -4.7060    -2.9210 hc         0 154       0.055117
     46 H1           2.9930    -4.8640    -2.7740 hc         0 154       0.055117
     47 H2           3.7100    -3.3160    -3.2840 hc         0 154       0.055117
     48 H3           1.2440     4.3830    -2.8510 hc         0 154       0.055117
     49 H4           1.7050     6.0620    -2.4810 hc         0 154       0.055117
     50 H5           2.9350     4.9060    -3.0460 hc         0 154       0.055117
     51 H6           0.7480     6.9180     0.7240 h1         0 154       0.071200
     52 H7           0.3020     6.3650    -0.9070 h1         0 154       0.071200
     53 H8          -0.3710     4.3010     0.9790 h1         0 154       0.063950
     54 H9          -1.0260     5.8380     1.5750 h1         0 154       0.063950
     55 H10         -2.4550     3.4900     0.6440 h1         0 154       0.055700
     56 H11         -3.0850     5.0130     1.3140 h1         0 154       0.055700
     57 H12         -4.7240     5.1860    -0.2740 h1         0 154       0.058450
     58 H13         -3.6840     4.5400    -1.5630 h1         0 154       0.058450
     59 H14         -6.2730     3.3140     0.8520 h1         0 154       0.061700
     60 H15         -6.2920     4.3640    -0.5850 h1         0 154       0.061700
     61 H16         -7.3920     2.7980    -1.7870 h1         0 154       0.057950
     62 H17         -6.1820     1.5610    -1.3700 h1         0 154       0.057950
     63 H18         -7.3060     0.3730     2.1280 ha         0 154       0.147000
     64 H19         -6.6460    -1.9960     2.2400 ha         0 154       0.147000
     65 H20         -4.4930    -2.6740     0.5040 h1         0 154       0.057950
     66 H21         -5.1720    -3.5620     1.8900 h1         0 154       0.057950
     67 H22         -4.1200    -5.4640     1.2550 h1         0 154       0.061700
     68 H23         -4.8140    -5.3500    -0.3820 h1         0 154       0.061700
     69 H24         -1.5670    -4.4950     1.3810 h1         0 154       0.058450
     70 H25         -2.4410    -6.0170     1.0730 h1         0 154       0.058450
     71 H26         -1.0480    -6.6170    -0.6440 h1         0 154       0.055700
     72 H27         -0.9060    -4.9480    -1.2430 h1         0 154       0.055700
     73 H28          1.1450    -6.3960    -1.3960 h1         0 154       0.063950
     74 H29          1.3850    -4.6360    -1.3280 h1         0 154       0.063950
     75 H30          2.6660    -6.1390     0.8890 h1         0 154       0.071200
     76 H31          3.3210    -6.5000    -0.7240 h1         0 154       0.071200
     77 H32          4.6330    -4.7940     2.7320 hc         0 154       0.055117
     78 H33          3.5820    -3.4020     3.0880 hc         0 154       0.055117
     79 H34          2.8730    -4.9280     2.5070 hc         0 154       0.055117
     80 H35         -6.9430    -2.2790    -2.0130 ha         0 154       0.147000
     81 H36         -7.5870     0.0950    -2.1260 ha         0 154       0.147000
     82 H37          1.2520     4.2950     3.0190 hc         0 154       0.055117
     83 H38          2.9460     4.8020     3.2240 hc         0 154       0.055117
     84 H39          1.7210     5.9820     2.6990 hc         0 154       0.055117
@<TRIPOS>BOND
     1     1     2 1   
     2     1    45 1   
     3     1    46 1   
     4     1    47 1   
     5     2     3 2   
     6     2    34 1   
     7     3     4 1   
     8     3    37 1   
     9     4     5 1   
    10     5     6 2   
    11     5    38 1   
    12     6     7 1   
    13     6    44 1   
    14     7     8 1   
    15     8     9 2   
    16     8    43 1   
    17     9    10 1   
    18     9    11 1   
    19    10    48 1   
    20    10    49 1   
    21    10    50 1   
    22    11    12 1   
    23    11    41 1   
    24    12    13 1   
    25    12    51 1   
    26    12    52 1   
    27    13    14 1   
    28    13    53 1   
    29    13    54 1   
    30    14    15 1   
    31    15    16 1   
    32    15    55 1   
    33    15    56 1   
    34    16    17 1   
    35    16    57 1   
    36    16    58 1   
    37    17    18 1   
    38    18    19 1   
    39    18    59 1   
    40    18    60 1   
    41    19    20 1   
    42    19    61 1   
    43    19    62 1   
    44    20    21 1   
    45    21    22 ar  
    46    21    40 ar  
    47    22    23 ar  
    48    22    63 1   
    49    23    24 ar  
    50    23    64 1   
    51    24    25 1   
    52    24    39 ar  
    53    25    26 1   
    54    26    27 1   
    55    26    65 1   
    56    26    66 1   
    57    27    28 1   
    58    27    67 1   
    59    27    68 1   
    60    28    29 1   
    61    29    30 1   
    62    29    69 1   
    63    29    70 1   
    64    30    31 1   
    65    30    71 1   
    66    30    72 1   
    67    31    32 1   
    68    32    33 1   
    69    32    73 1   
    70    32    74 1   
    71    33    34 1   
    72    33    75 1   
    73    33    76 1   
    74    34    35 1   
    75    35    36 1   
    76    35    37 2   
    77    36    77 1   
    78    36    78 1   
    79    36    79 1   
    80    37    38 1   
    81    39    40 ar  
    82    39    80 1   
    83    40    81 1   
    84    41    42 1   
    85    41    43 2   
    86    42    82 1   
    87    42    83 1   
    88    42    84 1   
    89    43    44 1   
@<TRIPOS>SUBSTRUCTURE
     1 154         1 TEMP              0 ****  ****    0 ROOT
