@<TRIPOS>MOLECULE
55
   70    74     1     0     0
SMALL
bcc


@<TRIPOS>ATOM
      1 C           -6.1310     0.8080    -0.3520 c3         0 55       -0.076900
      2 C1          -6.1650    -0.6110     0.2200 c3         0 55       -0.076900
      3 C2          -4.9180    -1.3730    -0.2350 c3         0 55       -0.093400
      4 C3          -3.6660    -0.6500     0.2670 c3         0 55        0.179500
      5 H           -3.6890    -0.6020     1.3560 h1         0 55        0.054200
      6 N           -2.4680    -1.3840    -0.1610 n3         0 55       -0.826200
      7 C4          -2.5370    -2.7090     0.4680 c3         0 55        0.124500
      8 C5          -1.2310    -3.4340     0.2700 ca         0 55        0.392100
      9 C6          -1.1620    -4.7930     0.5120 ca         0 55       -0.239800
     10 C7           0.0430    -5.4520     0.3270 ca         0 55       -0.092000
     11 C8           1.1400    -4.7160    -0.0970 ca         0 55       -0.239800
     12 C9           0.9940    -3.3590    -0.3190 ca         0 55        0.392100
     13 C10          2.1780    -2.5520    -0.7810 c3         0 55        0.124500
     14 N1           2.4610    -1.4830     0.1860 n3         0 55       -0.826200
     15 C11          3.6500    -0.7740    -0.3050 c3         0 55        0.179500
     16 H1           3.6110    -0.7170    -1.3930 h1         0 55        0.054200
     17 C12          4.9110    -1.5280     0.1230 c3         0 55       -0.093400
     18 C13          6.1460    -0.7930    -0.4010 c3         0 55       -0.076900
     19 C14          6.1800     0.6230     0.1800 c3         0 55       -0.076900
     20 C15          4.9190     1.3780    -0.2470 c3         0 55       -0.093400
     21 C16          3.6830     0.6420     0.2740 c3         0 55        0.179500
     22 H2           3.7270     0.5850     1.3620 h1         0 55        0.054200
     23 N2           2.4720     1.3720    -0.1230 n3         0 55       -0.826200
     24 C17          2.4240     2.5860     0.6990 c3         0 55        0.124500
     25 C18          1.1840     3.3780     0.3770 ca         0 55        0.392100
     26 N3           0.0840     2.7490     0.0120 nb         0 55       -0.672000
     27 C19         -1.0240     3.4020    -0.2790 ca         0 55        0.392100
     28 C20         -2.2540     2.6400    -0.6930 c3         0 55        0.124500
     29 N4          -2.4330     1.4680     0.1750 n3         0 55       -0.826200
     30 C21         -3.6340     0.7700    -0.3020 c3         0 55        0.179500
     31 H3          -3.6150     0.7210    -1.3910 h1         0 55        0.054200
     32 C22         -4.8810     1.5300     0.1560 c3         0 55       -0.093400
     33 C23         -1.0700     4.7830    -0.2100 ca         0 55       -0.239800
     34 C24          0.0680     5.4780     0.1700 ca         0 55       -0.092000
     35 C25          1.2130     4.7570     0.4690 ca         0 55       -0.239800
     36 N5          -0.1670    -2.7660    -0.1310 nb         0 55       -0.672000
     37 H4          -6.1060     0.7600    -1.4410 hc         0 55        0.039950
     38 H5          -7.0200     1.3500    -0.0320 hc         0 55        0.039950
     39 H6          -6.1850    -0.5640     1.3090 hc         0 55        0.039950
     40 H7          -7.0560    -1.1260    -0.1390 hc         0 55        0.039950
     41 H8          -4.9420    -2.3840     0.1720 hc         0 55        0.044700
     42 H9          -4.8980    -1.4200    -1.3240 hc         0 55        0.044700
     43 H10         -2.5580    -1.5300    -1.1560 hn         0 55        0.385800
     44 H11         -2.7300    -2.5940     1.5340 h1         0 55        0.049950
     45 H12         -3.3440    -3.2840     0.0140 h1         0 55        0.049950
     46 H13         -2.0360    -5.3350     0.8420 ha         0 55        0.144000
     47 H14          0.1260    -6.5130     0.5090 ha         0 55        0.138000
     48 H15          2.0950    -5.1960    -0.2510 ha         0 55        0.144000
     49 H16          3.0490    -3.2020    -0.8670 h1         0 55        0.049950
     50 H17          1.9590    -2.1110    -1.7540 h1         0 55        0.049950
     51 H18          1.6920    -0.8320     0.1320 hn         0 55        0.385800
     52 H19          4.9520    -1.5790     1.2110 hc         0 55        0.044700
     53 H20          4.8870    -2.5380    -0.2880 hc         0 55        0.044700
     54 H21          7.0450    -1.3310    -0.1000 hc         0 55        0.039950
     55 H22          6.1020    -0.7380    -1.4890 hc         0 55        0.039950
     56 H23          6.2200     0.5690     1.2680 hc         0 55        0.039950
     57 H24          7.0610     1.1470    -0.1910 hc         0 55        0.039950
     58 H25          4.9430     2.3860     0.1650 hc         0 55        0.044700
     59 H26          4.8790     1.4300    -1.3350 hc         0 55        0.044700
     60 H27          2.6140     1.6720    -1.0760 hn         0 55        0.385800
     61 H28          2.4130     2.3090     1.7530 h1         0 55        0.049950
     62 H29          3.3050     3.1950     0.4960 h1         0 55        0.049950
     63 H30         -3.1270     3.2880    -0.6090 h1         0 55        0.049950
     64 H31         -2.1460     2.3120    -1.7260 h1         0 55        0.049950
     65 H32         -1.6510     0.8550    -0.0020 hn         0 55        0.385800
     66 H33         -4.8570     2.5430    -0.2460 hc         0 55        0.044700
     67 H34         -4.9030     1.5710     1.2450 hc         0 55        0.044700
     68 H35         -1.9810     5.3120    -0.4490 ha         0 55        0.144000
     69 H36          0.0610     6.5560     0.2320 ha         0 55        0.138000
     70 H37          2.1160     5.2660     0.7690 ha         0 55        0.144000
@<TRIPOS>BOND
     1     1     2 1   
     2     1    32 1   
     3     1    37 1   
     4     1    38 1   
     5     2     3 1   
     6     2    39 1   
     7     2    40 1   
     8     3     4 1   
     9     3    41 1   
    10     3    42 1   
    11     4     5 1   
    12     4     6 1   
    13     4    30 1   
    14     6     7 1   
    15     6    43 1   
    16     7     8 1   
    17     7    44 1   
    18     7    45 1   
    19     8     9 ar  
    20     8    36 ar  
    21     9    10 ar  
    22     9    46 1   
    23    10    11 ar  
    24    10    47 1   
    25    11    12 ar  
    26    11    48 1   
    27    12    13 1   
    28    12    36 ar  
    29    13    14 1   
    30    13    49 1   
    31    13    50 1   
    32    14    15 1   
    33    14    51 1   
    34    15    16 1   
    35    15    17 1   
    36    15    21 1   
    37    17    18 1   
    38    17    52 1   
    39    17    53 1   
    40    18    19 1   
    41    18    54 1   
    42    18    55 1   
    43    19    20 1   
    44    19    56 1   
    45    19    57 1   
    46    20    21 1   
    47    20    58 1   
    48    20    59 1   
    49    21    22 1   
    50    21    23 1   
    51    23    24 1   
    52    23    60 1   
    53    24    25 1   
    54    24    61 1   
    55    24    62 1   
    56    25    26 ar  
    57    25    35 ar  
    58    26    27 ar  
    59    27    28 1   
    60    27    33 ar  
    61    28    29 1   
    62    28    63 1   
    63    28    64 1   
    64    29    30 1   
    65    29    65 1   
    66    30    31 1   
    67    30    32 1   
    68    32    66 1   
    69    32    67 1   
    70    33    34 ar  
    71    33    68 1   
    72    34    35 ar  
    73    34    69 1   
    74    35    70 1   
@<TRIPOS>SUBSTRUCTURE
     1 55          1 TEMP              0 ****  ****    0 ROOT
