@<TRIPOS>MOLECULE
160
   93    96     1     0     0
SMALL
bcc


@<TRIPOS>ATOM
      1 C            9.1950     1.5620     1.3130 c3         0 160      -0.089100
      2 C1           8.8390     0.7770     0.0490 c3         0 160      -0.009700
      3 C2           9.3020     1.5570    -1.1830 c3         0 160      -0.089100
      4 C3           9.5360    -0.5850     0.0810 c3         0 160      -0.089100
      5 C4           7.3470     0.5760    -0.0150 ca         0 160      -0.077300
      6 C5           6.5060     1.6690    -0.0530 ca         0 160      -0.058500
      7 C6           5.1180     1.4930    -0.1140 ca         0 160      -0.146600
      8 C7           4.5880     0.2050    -0.1260 ca         0 160      -0.084000
      9 C8           5.4400    -0.8950    -0.0910 ca         0 160      -0.146600
     10 C9           6.8240    -0.6990    -0.0400 ca         0 160      -0.058500
     11 C10          4.9160    -2.2730    -0.1170 c          0 160       0.666200
     12 O            5.6950    -3.2060    -0.0980 o          0 160      -0.605600
     13 N            3.5810    -2.5220    -0.1610 n          0 160      -0.554400
     14 C11          3.2090    -3.9490    -0.2560 c3         0 160       0.085500
     15 C12          1.7330    -4.1200     0.0980 c3         0 160       0.096900
     16 O1           1.4480    -5.5080     0.2840 os         0 160      -0.343900
     17 C13          0.1000    -5.6580     0.2040 ca         0 160       0.090100
     18 C14         -0.5500    -5.4760    -1.0080 ca         0 160      -0.147000
     19 C15         -1.9200    -5.6350    -1.0870 ca         0 160      -0.144250
     20 C16         -2.6460    -5.9760     0.0440 ca         0 160       0.093600
     21 O2          -3.9940    -6.1330    -0.0330 os         0 160      -0.339900
     22 C17         -4.5790    -4.8920     0.3670 c3         0 160       0.088900
     23 C18         -5.7930    -4.5930    -0.5150 c3         0 160       0.127400
     24 O3          -6.6670    -3.6890     0.1650 os         0 160      -0.423100
     25 C19         -6.5100    -2.4120    -0.4570 c3         0 160       0.119400
     26 C20         -7.4170    -1.3940     0.2360 c3         0 160       0.125400
     27 O4          -7.2680    -0.1190    -0.3920 os         0 160      -0.425600
     28 C21         -8.1850     0.7680     0.2520 c3         0 160       0.125400
     29 C22         -8.0260     2.1740    -0.3320 c3         0 160       0.119400
     30 O5          -6.7150     2.6640    -0.0400 os         0 160      -0.423100
     31 C23         -6.7990     4.0910    -0.0650 c3         0 160       0.127400
     32 C24         -5.5350     4.6610    -0.7130 c3         0 160       0.088900
     33 O6          -5.0290     5.7260     0.0910 os         0 160      -0.339900
     34 C25         -3.6840     5.5480     0.1930 ca         0 160       0.093600
     35 C26         -2.8990     5.4910    -0.9470 ca         0 160      -0.144250
     36 C27         -1.5310     5.3310    -0.8360 ca         0 160      -0.147000
     37 C28         -0.9440     5.2220     0.4160 ca         0 160       0.090100
     38 O7           0.4030     5.1010     0.5370 os         0 160      -0.343900
     39 C29          0.7800     3.8010     0.0820 c3         0 160       0.096900
     40 C30          2.1900     3.8610    -0.5050 c3         0 160       0.085500
     41 N1           2.9000     2.5900    -0.2460 n          0 160      -0.554400
     42 C31          4.2540     2.6840    -0.1830 c          0 160       0.666200
     43 O8           4.7680     3.7850    -0.1830 o          0 160      -0.605600
     44 C32         -1.7360     5.2550     1.5560 ca         0 160      -0.147000
     45 C33         -3.1020     5.4180     1.4450 ca         0 160      -0.144250
     46 C34         -1.9960    -6.1550     1.2570 ca         0 160      -0.144250
     47 C35         -0.6270    -5.9950     1.3360 ca         0 160      -0.147000
     48 H            8.6980     2.5320     1.2900 hc         0 160       0.040478
     49 H1           8.8650     1.0060     2.1910 hc         0 160       0.040478
     50 H2          10.2740     1.7070     1.3590 hc         0 160       0.040478
     51 H3          10.3810     1.7020    -1.1370 hc         0 160       0.040478
     52 H4           9.0480     0.9980    -2.0840 hc         0 160       0.040478
     53 H5           8.8050     2.5270    -1.2060 hc         0 160       0.040478
     54 H6           9.2060    -1.1410     0.9590 hc         0 160       0.040478
     55 H7           9.2820    -1.1440    -0.8190 hc         0 160       0.040478
     56 H8          10.6150    -0.4400     0.1270 hc         0 160       0.040478
     57 H9           6.9210     2.6660    -0.0350 ha         0 160       0.162000
     58 H10          3.5190     0.0610    -0.1630 ha         0 160       0.138000
     59 H11          7.4870    -1.5520    -0.0130 ha         0 160       0.162000
     60 H12          2.9190    -1.8130    -0.1320 hn         0 160       0.315500
     61 H13          3.3820    -4.3020    -1.2730 h1         0 160       0.076200
     62 H14          3.8180    -4.5290     0.4370 h1         0 160       0.076200
     63 H15          1.5140    -3.5770     1.0170 h1         0 160       0.050950
     64 H16          1.1170    -3.7280    -0.7120 h1         0 160       0.050950
     65 H17          0.0150    -5.2100    -1.8890 ha         0 160       0.145250
     66 H18         -2.4260    -5.4940    -2.0310 ha         0 160       0.147250
     67 H19         -4.8930    -4.9570     1.4080 h1         0 160       0.054950
     68 H20         -3.8450    -4.0930     0.2580 h1         0 160       0.054950
     69 H21         -5.4610    -4.1420    -1.4500 h1         0 160       0.062950
     70 H22         -6.3240    -5.5200    -0.7280 h1         0 160       0.062950
     71 H23         -5.4720    -2.0920    -0.3710 h1         0 160       0.052700
     72 H24         -6.7820    -2.4850    -1.5100 h1         0 160       0.052700
     73 H25         -8.4550    -1.7180     0.1570 h1         0 160       0.041700
     74 H26         -7.1400    -1.3160     1.2870 h1         0 160       0.041700
     75 H27         -9.2040     0.4200     0.0880 h1         0 160       0.041700
     76 H28         -7.9770     0.7930     1.3220 h1         0 160       0.041700
     77 H29         -8.1670     2.1360    -1.4120 h1         0 160       0.052700
     78 H30         -8.7690     2.8370     0.1100 h1         0 160       0.052700
     79 H31         -7.6720     4.3940    -0.6420 h1         0 160       0.062950
     80 H32         -6.8870     4.4680     0.9540 h1         0 160       0.062950
     81 H33         -4.7830     3.8770    -0.7930 h1         0 160       0.054950
     82 H34         -5.7760     5.0380    -1.7070 h1         0 160       0.054950
     83 H35         -3.3550     5.5730    -1.9230 ha         0 160       0.147250
     84 H36         -0.9180     5.2900    -1.7240 ha         0 160       0.145250
     85 H37          0.7630     3.1030     0.9190 h1         0 160       0.050950
     86 H38          0.0800     3.4670    -0.6850 h1         0 160       0.050950
     87 H39          2.1270     4.0290    -1.5800 h1         0 160       0.076200
     88 H40          2.7380     4.6830    -0.0430 h1         0 160       0.076200
     89 H41          2.4320     1.7480    -0.1290 hn         0 160       0.315500
     90 H42         -1.2820     5.1520     2.5310 ha         0 160       0.145250
     91 H43         -3.7170     5.4450     2.3320 ha         0 160       0.147250
     92 H44         -2.5610    -6.4190     2.1380 ha         0 160       0.147250
     93 H45         -0.1210    -6.1330     2.2810 ha         0 160       0.145250
@<TRIPOS>BOND
     1     1     2 1   
     2     1    48 1   
     3     1    49 1   
     4     1    50 1   
     5     2     3 1   
     6     2     4 1   
     7     2     5 1   
     8     3    51 1   
     9     3    52 1   
    10     3    53 1   
    11     4    54 1   
    12     4    55 1   
    13     4    56 1   
    14     5     6 ar  
    15     5    10 ar  
    16     6     7 ar  
    17     6    57 1   
    18     7     8 ar  
    19     7    42 1   
    20     8     9 ar  
    21     8    58 1   
    22     9    10 ar  
    23     9    11 1   
    24    10    59 1   
    25    11    12 2   
    26    11    13 1   
    27    13    14 1   
    28    13    60 1   
    29    14    15 1   
    30    14    61 1   
    31    14    62 1   
    32    15    16 1   
    33    15    63 1   
    34    15    64 1   
    35    16    17 1   
    36    17    18 ar  
    37    17    47 ar  
    38    18    19 ar  
    39    18    65 1   
    40    19    20 ar  
    41    19    66 1   
    42    20    21 1   
    43    20    46 ar  
    44    21    22 1   
    45    22    23 1   
    46    22    67 1   
    47    22    68 1   
    48    23    24 1   
    49    23    69 1   
    50    23    70 1   
    51    24    25 1   
    52    25    26 1   
    53    25    71 1   
    54    25    72 1   
    55    26    27 1   
    56    26    73 1   
    57    26    74 1   
    58    27    28 1   
    59    28    29 1   
    60    28    75 1   
    61    28    76 1   
    62    29    30 1   
    63    29    77 1   
    64    29    78 1   
    65    30    31 1   
    66    31    32 1   
    67    31    79 1   
    68    31    80 1   
    69    32    33 1   
    70    32    81 1   
    71    32    82 1   
    72    33    34 1   
    73    34    35 ar  
    74    34    45 ar  
    75    35    36 ar  
    76    35    83 1   
    77    36    37 ar  
    78    36    84 1   
    79    37    38 1   
    80    37    44 ar  
    81    38    39 1   
    82    39    40 1   
    83    39    85 1   
    84    39    86 1   
    85    40    41 1   
    86    40    87 1   
    87    40    88 1   
    88    41    42 1   
    89    41    89 1   
    90    42    43 2   
    91    44    45 ar  
    92    44    90 1   
    93    45    91 1   
    94    46    47 ar  
    95    46    92 1   
    96    47    93 1   
@<TRIPOS>SUBSTRUCTURE
     1 160         1 TEMP              0 ****  ****    0 ROOT
