@<TRIPOS>MOLECULE
DAV
  196   210     1     0     0
SMALL
bcc


@<TRIPOS>ATOM
      1 O1          -0.6920     4.7470    -1.1040 o          0 DAV      -0.599725
      2 C1          -1.8320     4.7440    -0.6530 c          0 DAV       0.667575
      3 N1          -2.0930     5.0180     0.6610 n          0 DAV      -0.553275
      4 C2          -3.2870     4.6710     1.4070 c3         0 DAV       0.130800
      5 C3          -3.3260     3.1920     1.7140 ca         0 DAV      -0.120675
      6 C4          -4.3550     2.3870     1.2080 ca         0 DAV      -0.108000
      7 C5          -4.3650     1.0060     1.4340 ca         0 DAV      -0.120675
      8 C6          -3.3260     0.4340     2.1860 ca         0 DAV      -0.101625
      9 C7          -2.2790     1.2100     2.7130 cp         0 DAV      -0.039000
     10 C8          -2.3100     2.5940     2.4810 ca         0 DAV      -0.101625
     11 C9          -1.1650     0.5770     3.4450 cp         0 DAV      -0.039000
     12 C10         -0.4770    -0.5120     2.8770 ca         0 DAV      -0.101625
     13 C11          0.5660    -1.1560     3.5550 ca         0 DAV      -0.120675
     14 C12          0.9620    -0.6660     4.8040 ca         0 DAV      -0.108000
     15 C13          0.3060     0.4210     5.4030 ca         0 DAV      -0.120675
     16 C14         -0.7680     1.0190     4.7210 ca         0 DAV      -0.101625
     17 C15          0.7210     0.8150     6.8000 c3         0 DAV       0.130800
     18 N2           0.4860     2.1940     7.1830 n          0 DAV      -0.553275
     19 C16          1.1390     3.3170     6.7500 c          0 DAV       0.667575
     20 O2           1.0630     4.3730     7.3670 o          0 DAV      -0.599725
     21 C17          1.8560     3.2850     5.4670 ca         0 DAV      -0.155100
     22 C18          1.2330     3.8980     4.3790 ca         0 DAV      -0.051500
     23 C19          1.8340     3.8380     3.1250 ca         0 DAV      -0.155100
     24 C20          3.0880     3.2340     2.9790 ca         0 DAV      -0.020500
     25 C21          3.7210     2.6380     4.0780 ca         0 DAV      -0.141600
     26 C22          5.0220     1.9640     3.8390 c          0 DAV       0.649450
     27 O3           5.4000     1.6310     2.7260 o          0 DAV      -0.535000
     28 O4           5.6860     1.8290     5.0090 os         0 DAV      -0.436900
     29 C23          7.0000     1.2480     5.0200 c3         0 DAV       0.155600
     30 C24          8.0510     2.0750     4.2780 c3         0 DAV      -0.099275
     31 C25          9.0530     1.0360     3.7990 c3         0 DAV      -0.076650
     32 C26          8.1690    -0.1330     3.3920 c3         0 DAV      -0.076650
     33 C27          7.0770    -0.1770     4.4590 c3         0 DAV      -0.099275
     34 C28          3.1010     2.6630     5.3350 ca         0 DAV      -0.020500
     35 C29          1.1080     4.4100     1.9660 c          0 DAV       0.667575
     36 O5           0.3590     5.3710     2.1120 o          0 DAV      -0.599725
     37 N3           1.2600     3.8130     0.7360 n          0 DAV      -0.553275
     38 C30          1.0740     2.3850     0.5810 c3         0 DAV       0.130800
     39 C31          1.5730     1.9090    -0.7500 ca         0 DAV      -0.120675
     40 C32          2.9370     1.9170    -1.0480 ca         0 DAV      -0.108000
     41 C33          3.4160     1.4050    -2.2640 ca         0 DAV      -0.120675
     42 C34          2.4950     0.9260    -3.2110 ca         0 DAV      -0.101625
     43 C35          1.1160     0.9500    -2.9530 cp         0 DAV      -0.039000
     44 C36          0.6770     1.4320    -1.7090 ca         0 DAV      -0.101625
     45 C37          0.1230     0.4530    -3.9140 cp         0 DAV      -0.039000
     46 C38         -0.9230     1.2860    -4.3550 ca         0 DAV      -0.101625
     47 C39         -1.9670     0.7880    -5.1450 ca         0 DAV      -0.120675
     48 C40         -1.9320    -0.5540    -5.5350 ca         0 DAV      -0.108000
     49 C41         -0.9160    -1.4120    -5.0940 ca         0 DAV      -0.120675
     50 C42          0.1160    -0.8960    -4.3000 ca         0 DAV      -0.101625
     51 C43         -1.0580    -2.8970    -5.3150 c3         0 DAV       0.130800
     52 N4          -1.8740    -3.4570    -4.2560 n          0 DAV      -0.553275
     53 C44         -3.2480    -3.4260    -4.3260 c          0 DAV       0.667575
     54 O6          -3.9120    -3.1370    -5.3130 o          0 DAV      -0.599725
     55 C45         -3.9320    -3.7560    -3.0660 ca         0 DAV      -0.155100
     56 C46         -4.0760    -2.7800    -2.0710 ca         0 DAV      -0.051500
     57 C47         -4.7480    -3.1130    -0.8910 ca         0 DAV      -0.155100
     58 C48         -5.2490    -4.4190    -0.7180 ca         0 DAV      -0.020500
     59 C49         -5.1090    -5.3840    -1.7260 ca         0 DAV      -0.141600
     60 C50         -5.6380    -6.7680    -1.5890 c          0 DAV       0.649450
     61 O7          -5.4340    -7.6480    -2.4100 o          0 DAV      -0.535000
     62 O8          -6.3660    -6.8870    -0.4530 os         0 DAV      -0.436900
     63 C51         -6.9590    -8.1780    -0.2250 c3         0 DAV       0.155600
     64 C52         -8.2780    -8.3070    -0.9820 c3         0 DAV      -0.099275
     65 C53         -9.2660    -7.4780    -0.1640 c3         0 DAV      -0.076650
     66 C54         -8.7190    -7.4560     1.2630 c3         0 DAV      -0.076650
     67 C55         -7.4100    -8.2450     1.2310 c3         0 DAV      -0.099275
     68 C56         -4.4490    -5.0460    -2.9110 ca         0 DAV      -0.020500
     69 C57         -4.9550    -2.1530     0.2280 c          0 DAV       0.667575
     70 O9          -5.0760    -2.5930     1.3680 o          0 DAV      -0.599725
     71 N5          -5.0400    -0.8140    -0.0780 n          0 DAV      -0.553275
     72 C58         -5.4880     0.1480     0.9070 c3         0 DAV       0.130800
     73 C59         -3.1980     1.6110    -5.4340 c3         0 DAV       0.130800
     74 N6          -4.3000     1.1330    -4.6030 n          0 DAV      -0.553275
     75 C60         -4.4750     1.4810    -3.2870 c          0 DAV       0.667575
     76 O10         -4.8980     0.6820    -2.4570 o          0 DAV      -0.599725
     77 C61         -4.1830     2.8700    -2.8870 ca         0 DAV      -0.155100
     78 C62         -3.1900     3.1210    -1.9420 ca         0 DAV      -0.051500
     79 C63         -2.9480     4.4400    -1.5610 ca         0 DAV      -0.155100
     80 C64         -3.6870     5.4970    -2.1000 ca         0 DAV      -0.020500
     81 C65         -4.6910     5.2340    -3.0410 ca         0 DAV      -0.141600
     82 C66         -5.4590     6.3850    -3.5860 c          0 DAV       0.649450
     83 O11         -5.3340     7.5270    -3.1770 o          0 DAV      -0.535000
     84 O12         -6.2830     5.9730    -4.5800 os         0 DAV      -0.436900
     85 C67         -7.0580     7.0030    -5.1960 c3         0 DAV       0.155600
     86 C68         -6.2540     7.7940    -6.2210 c3         0 DAV      -0.099275
     87 C69         -7.3060     8.3850    -7.1530 c3         0 DAV      -0.076650
     88 C70         -8.5380     7.4870    -7.0240 c3         0 DAV      -0.076650
     89 C71         -8.1460     6.3770    -6.0590 c3         0 DAV      -0.099275
     90 C72         -4.9380     3.9120    -3.4370 ca         0 DAV      -0.020500
     91 C73          4.9050     1.3430    -2.5140 c3         0 DAV       0.130800
     92 N7           5.5400     0.5700    -1.4670 n          0 DAV      -0.553275
     93 C74          5.6980    -0.7880    -1.5900 c          0 DAV       0.667575
     94 O13          5.7060    -1.4150    -2.6400 o          0 DAV      -0.599725
     95 C75          5.8030    -1.5060    -0.3060 ca         0 DAV      -0.155100
     96 C76          4.7390    -1.4280     0.6000 ca         0 DAV      -0.051500
     97 C77          4.7960    -2.1610     1.7870 ca         0 DAV      -0.155100
     98 C78          5.9360    -2.9240     2.0780 ca         0 DAV      -0.020500
     99 C79          7.0040    -2.9920     1.1670 ca         0 DAV      -0.141600
    100 C80          8.1900    -3.8110     1.5380 c          0 DAV       0.649450
    101 O14          8.2680    -4.4350     2.5830 o          0 DAV      -0.535000
    102 O15          9.1330    -3.7330     0.5690 os         0 DAV      -0.436900
    103 C81         10.3790    -4.4260     0.7370 c3         0 DAV       0.155600
    104 C82         11.1790    -4.0180     1.9830 c3         0 DAV      -0.099275
    105 C83         11.5000    -5.3260     2.7020 c3         0 DAV      -0.076650
    106 C84         11.4370    -6.3890     1.6140 c3         0 DAV      -0.076650
    107 C85         10.2510    -5.9500     0.7680 c3         0 DAV      -0.099275
    108 C86          6.9240    -2.2940    -0.0440 ca         0 DAV      -0.020500
    109 C87          3.6610    -2.1830     2.7490 c          0 DAV       0.667575
    110 O16          3.8750    -2.3520     3.9440 o          0 DAV      -0.599725
    111 N8           2.3990    -2.0740     2.2030 n          0 DAV      -0.553275
    112 C88          1.2210    -2.3830     2.9810 c3         0 DAV       0.130800
    113 H1          -1.2580     5.2320     1.2100 hn         0 DAV       0.324375
    114 H2          -4.1700     4.9810     0.8390 h1         0 DAV       0.070138
    115 H3          -3.2750     5.2410     2.3420 h1         0 DAV       0.070138
    116 H4          -5.1550     2.8380     0.6220 ha         0 DAV       0.148000
    117 H5          -3.3470    -0.6410     2.3720 ha         0 DAV       0.146000
    118 H6          -1.5110     3.2200     2.8710 ha         0 DAV       0.146000
    119 H7          -0.7790    -0.8800     1.8970 ha         0 DAV       0.146000
    120 H8           1.7770    -1.1650     5.3290 ha         0 DAV       0.148000
    121 H9          -1.3160     1.8310     5.1960 ha         0 DAV       0.146000
    122 H10          0.1600     0.1940     7.5080 h1         0 DAV       0.070138
    123 H11          1.7870     0.6150     6.9540 h1         0 DAV       0.070138
    124 H12          0.0510     2.3410     8.0850 hn         0 DAV       0.324375
    125 H13          0.2710     4.3890     4.5090 ha         0 DAV       0.149250
    126 H14          3.5740     3.2270     2.0060 ha         0 DAV       0.175875
    127 H15          7.2840     1.2040     6.0790 h1         0 DAV       0.078450
    128 H16          7.6270     2.6220     3.4290 hc         0 DAV       0.058513
    129 H17          8.5150     2.8200     4.9340 hc         0 DAV       0.058513
    130 H18          9.6670     1.4010     2.9710 hc         0 DAV       0.045450
    131 H19          9.7180     0.7420     4.6190 hc         0 DAV       0.045450
    132 H20          8.7250    -1.0730     3.3290 hc         0 DAV       0.045450
    133 H21          7.7220     0.0620     2.4100 hc         0 DAV       0.045450
    134 H22          6.1290    -0.5480     4.0640 hc         0 DAV       0.058513
    135 H23          7.3830    -0.8640     5.2570 hc         0 DAV       0.058513
    136 H24          3.5710     2.2030     6.2000 ha         0 DAV       0.175875
    137 H25          0.7510     4.3360     0.0180 hn         0 DAV       0.324375
    138 H26          1.5610     1.8170     1.3780 h1         0 DAV       0.070138
    139 H27          0.0010     2.1920     0.6840 h1         0 DAV       0.070138
    140 H28          3.6370     2.3110    -0.3140 ha         0 DAV       0.148000
    141 H29          2.8570     0.5300    -4.1590 ha         0 DAV       0.146000
    142 H30         -0.3870     1.4250    -1.4810 ha         0 DAV       0.146000
    143 H31         -0.9420     2.3270    -4.0310 ha         0 DAV       0.146000
    144 H32         -2.7560    -0.9650    -6.1210 ha         0 DAV       0.148000
    145 H33          0.8870    -1.5650    -3.9200 ha         0 DAV       0.146000
    146 H34         -1.5110    -3.1020    -6.2910 h1         0 DAV       0.070138
    147 H35         -0.0810    -3.3910    -5.2870 h1         0 DAV       0.070138
    148 H36         -1.4360    -3.5920    -3.3540 hn         0 DAV       0.324375
    149 H37         -3.6650    -1.7850    -2.2280 ha         0 DAV       0.149250
    150 H38         -5.7600    -4.6690     0.2110 ha         0 DAV       0.175875
    151 H39         -6.2460    -8.9780    -0.4550 h1         0 DAV       0.078450
    152 H40         -8.6020    -9.3550    -0.9960 hc         0 DAV       0.058513
    153 H41         -8.2260    -7.9450    -2.0130 hc         0 DAV       0.058513
    154 H42        -10.2750    -7.9010    -0.2080 hc         0 DAV       0.045450
    155 H43         -9.3220    -6.4550    -0.5550 hc         0 DAV       0.045450
    156 H44         -9.4270    -7.8920     1.9760 hc         0 DAV       0.045450
    157 H45         -8.5350    -6.4200     1.5750 hc         0 DAV       0.045450
    158 H46         -6.6750    -7.8210     1.9240 hc         0 DAV       0.058513
    159 H47         -7.6030    -9.2860     1.5180 hc         0 DAV       0.058513
    160 H48         -4.3390    -5.7770    -3.7110 ha         0 DAV       0.175875
    161 H49         -5.0070    -0.4810    -1.0420 hn         0 DAV       0.324375
    162 H50         -6.2450     0.7670     0.4130 h1         0 DAV       0.070138
    163 H51         -5.9860    -0.3520     1.7460 h1         0 DAV       0.070138
    164 H52         -3.4950     1.4870    -6.4810 h1         0 DAV       0.070138
    165 H53         -3.0110     2.6750    -5.2640 h1         0 DAV       0.070138
    166 H54         -4.5530     0.1650    -4.7690 hn         0 DAV       0.324375
    167 H55         -2.6130     2.3060    -1.5150 ha         0 DAV       0.149250
    168 H56         -3.4650     6.5210    -1.8000 ha         0 DAV       0.175875
    169 H57         -7.5150     7.6600    -4.4440 h1         0 DAV       0.078450
    170 H58         -5.5770     7.1310    -6.7750 hc         0 DAV       0.058513
    171 H59         -5.6340     8.5680    -5.7590 hc         0 DAV       0.058513
    172 H60         -6.9420     8.4290    -8.1850 hc         0 DAV       0.045450
    173 H61         -7.5580     9.4080    -6.8500 hc         0 DAV       0.045450
    174 H62         -8.8540     7.0840    -7.9920 hc         0 DAV       0.045450
    175 H63         -9.3770     8.0650    -6.6190 hc         0 DAV       0.045450
    176 H64         -7.7560     5.5090    -6.6060 hc         0 DAV       0.058513
    177 H65         -8.9930     6.0230    -5.4630 hc         0 DAV       0.058513
    178 H66         -5.7190     3.6810    -4.1590 ha         0 DAV       0.175875
    179 H67          5.3250     2.3540    -2.4900 h1         0 DAV       0.070138
    180 H68          5.1250     0.9010    -3.4920 h1         0 DAV       0.070138
    181 H69          5.5530     0.9740    -0.5380 hn         0 DAV       0.324375
    182 H70          3.8780    -0.8080     0.3660 ha         0 DAV       0.149250
    183 H71          5.9870    -3.4780     3.0160 ha         0 DAV       0.175875
    184 H72         10.9780    -4.1540    -0.1430 h1         0 DAV       0.078450
    185 H73         12.1160    -3.5400     1.6670 hc         0 DAV       0.058513
    186 H74         10.6630    -3.3070     2.6360 hc         0 DAV       0.058513
    187 H75         10.7400    -5.5280     3.4660 hc         0 DAV       0.045450
    188 H76         12.4750    -5.2960     3.1980 hc         0 DAV       0.045450
    189 H77         11.3050    -7.3960     2.0210 hc         0 DAV       0.045450
    190 H78         12.3570    -6.3760     1.0160 hc         0 DAV       0.045450
    191 H79          9.3100    -6.2810     1.2210 hc         0 DAV       0.058513
    192 H80         10.2860    -6.3810    -0.2380 hc         0 DAV       0.058513
    193 H81          7.7220    -2.3460    -0.7820 ha         0 DAV       0.175875
    194 H82          2.2860    -2.0640     1.2000 hn         0 DAV       0.324375
    195 H83          1.4720    -3.0880     3.7830 h1         0 DAV       0.070138
    196 H84          0.5230    -2.9060     2.3180 h1         0 DAV       0.070138
@<TRIPOS>BOND
     1     1     2 2   
     2     2     3 1   
     3     2    79 1   
     4     3     4 1   
     5     3   113 1   
     6     4     5 1   
     7     4   114 1   
     8     4   115 1   
     9     5     6 ar  
    10     5    10 ar  
    11     6     7 ar  
    12     6   116 1   
    13     7     8 ar  
    14     7    72 1   
    15     8     9 ar  
    16     8   117 1   
    17     9    10 ar  
    18     9    11 1   
    19    10   118 1   
    20    11    12 ar  
    21    11    16 ar  
    22    12    13 ar  
    23    12   119 1   
    24    13    14 ar  
    25    13   112 1   
    26    14    15 ar  
    27    14   120 1   
    28    15    16 ar  
    29    15    17 1   
    30    16   121 1   
    31    17    18 1   
    32    17   122 1   
    33    17   123 1   
    34    18    19 1   
    35    18   124 1   
    36    19    20 2   
    37    19    21 1   
    38    21    22 ar  
    39    21    34 ar  
    40    22    23 ar  
    41    22   125 1   
    42    23    24 ar  
    43    23    35 1   
    44    24    25 ar  
    45    24   126 1   
    46    25    26 1   
    47    25    34 ar  
    48    26    27 2   
    49    26    28 1   
    50    28    29 1   
    51    29    30 1   
    52    29    33 1   
    53    29   127 1   
    54    30    31 1   
    55    30   128 1   
    56    30   129 1   
    57    31    32 1   
    58    31   130 1   
    59    31   131 1   
    60    32    33 1   
    61    32   132 1   
    62    32   133 1   
    63    33   134 1   
    64    33   135 1   
    65    34   136 1   
    66    35    36 2   
    67    35    37 1   
    68    37    38 1   
    69    37   137 1   
    70    38    39 1   
    71    38   138 1   
    72    38   139 1   
    73    39    40 ar  
    74    39    44 ar  
    75    40    41 ar  
    76    40   140 1   
    77    41    42 ar  
    78    41    91 1   
    79    42    43 ar  
    80    42   141 1   
    81    43    44 ar  
    82    43    45 1   
    83    44   142 1   
    84    45    46 ar  
    85    45    50 ar  
    86    46    47 ar  
    87    46   143 1   
    88    47    48 ar  
    89    47    73 1   
    90    48    49 ar  
    91    48   144 1   
    92    49    50 ar  
    93    49    51 1   
    94    50   145 1   
    95    51    52 1   
    96    51   146 1   
    97    51   147 1   
    98    52    53 1   
    99    52   148 1   
   100    53    54 2   
   101    53    55 1   
   102    55    56 ar  
   103    55    68 ar  
   104    56    57 ar  
   105    56   149 1   
   106    57    58 ar  
   107    57    69 1   
   108    58    59 ar  
   109    58   150 1   
   110    59    60 1   
   111    59    68 ar  
   112    60    61 2   
   113    60    62 1   
   114    62    63 1   
   115    63    64 1   
   116    63    67 1   
   117    63   151 1   
   118    64    65 1   
   119    64   152 1   
   120    64   153 1   
   121    65    66 1   
   122    65   154 1   
   123    65   155 1   
   124    66    67 1   
   125    66   156 1   
   126    66   157 1   
   127    67   158 1   
   128    67   159 1   
   129    68   160 1   
   130    69    70 2   
   131    69    71 1   
   132    71    72 1   
   133    71   161 1   
   134    72   162 1   
   135    72   163 1   
   136    73    74 1   
   137    73   164 1   
   138    73   165 1   
   139    74    75 1   
   140    74   166 1   
   141    75    76 2   
   142    75    77 1   
   143    77    78 ar  
   144    77    90 ar  
   145    78    79 ar  
   146    78   167 1   
   147    79    80 ar  
   148    80    81 ar  
   149    80   168 1   
   150    81    82 1   
   151    81    90 ar  
   152    82    83 2   
   153    82    84 1   
   154    84    85 1   
   155    85    86 1   
   156    85    89 1   
   157    85   169 1   
   158    86    87 1   
   159    86   170 1   
   160    86   171 1   
   161    87    88 1   
   162    87   172 1   
   163    87   173 1   
   164    88    89 1   
   165    88   174 1   
   166    88   175 1   
   167    89   176 1   
   168    89   177 1   
   169    90   178 1   
   170    91    92 1   
   171    91   179 1   
   172    91   180 1   
   173    92    93 1   
   174    92   181 1   
   175    93    94 2   
   176    93    95 1   
   177    95    96 ar  
   178    95   108 ar  
   179    96    97 ar  
   180    96   182 1   
   181    97    98 ar  
   182    97   109 1   
   183    98    99 ar  
   184    98   183 1   
   185    99   100 1   
   186    99   108 ar  
   187   100   101 2   
   188   100   102 1   
   189   102   103 1   
   190   103   104 1   
   191   103   107 1   
   192   103   184 1   
   193   104   105 1   
   194   104   185 1   
   195   104   186 1   
   196   105   106 1   
   197   105   187 1   
   198   105   188 1   
   199   106   107 1   
   200   106   189 1   
   201   106   190 1   
   202   107   191 1   
   203   107   192 1   
   204   108   193 1   
   205   109   110 2   
   206   109   111 1   
   207   111   112 1   
   208   111   194 1   
   209   112   195 1   
   210   112   196 1   
@<TRIPOS>SUBSTRUCTURE
     1 DAV         1 TEMP              0 ****  ****    0 ROOT
