@<TRIPOS>MOLECULE
23
   76    81     1     0     0
SMALL
bcc


@<TRIPOS>ATOM
      1 O1          -1.9180     2.2090    -3.2940 o          1 23       -0.538500
      2 C1          -2.0930     2.3760    -2.0980 c          1 23        0.645200
      3 O2          -2.1730     3.5700    -1.4610 os         1 23       -0.441400
      4 C2          -1.9470     4.7030    -2.3070 c3         1 23        0.137900
      5 C3          -1.9840     5.9890    -1.4800 c3         1 23       -0.097400
      6 C4          -0.7730     6.1760    -0.5550 c3         1 23       -0.081400
      7 C5          -0.8330     5.3220     0.7130 c3         1 23       -0.081400
      8 C6           0.3730     5.5140     1.6350 c3         1 23       -0.095900
      9 C7           1.6850     4.9170     1.1060 c3         1 23        0.083000
     10 N1           1.6680     3.4560     0.9910 n          1 23       -0.488900
     11 C8           1.4980     2.9090    -0.2830 c          1 23        0.716850
     12 O3           1.2990     3.5740    -1.2970 o          1 23       -0.599000
     13 C9           1.5840     1.4240    -0.3540 ca         1 23       -0.116100
     14 C10          1.4680     0.7870    -1.5350 ca         1 23       -0.059500
     15 C11          1.6240    -0.6560    -1.6410 ca         1 23       -0.059500
     16 C12          1.8900    -1.4180    -0.5630 ca         1 23       -0.116100
     17 C13          2.1440    -2.8780    -0.7120 c          1 23        0.716850
     18 O4           2.0940    -3.4150    -1.8150 o          1 23       -0.599000
     19 N2           2.4590    -3.5480     0.4720 n          1 23       -0.488900
     20 C14          2.8790    -4.9440     0.3670 c3         1 23        0.083000
     21 C15          1.8060    -5.9750     0.7390 c3         1 23       -0.095900
     22 C16          0.7110    -6.1480    -0.3160 c3         1 23       -0.081400
     23 C17         -0.5280    -5.3000    -0.0310 c3         1 23       -0.081400
     24 C18         -1.5480    -5.4300    -1.1660 c3         1 23       -0.097400
     25 C19         -2.8850    -4.7770    -0.8260 c3         1 23        0.137900
     26 O5          -2.7150    -3.4230    -0.3850 os         1 23       -0.441400
     27 C20         -2.5960    -2.4950    -1.3650 c          1 23        0.645200
     28 O6          -2.6040    -2.7070    -2.5650 o          1 23       -0.538500
     29 C21         -2.4630    -1.1380    -0.7690 ca         1 23       -0.148100
     30 C22         -2.4890    -0.9210     0.6160 ca         1 23       -0.044000
     31 C23         -2.4040     0.3740     1.1260 ca         1 23       -0.164000
     32 C24         -2.2930     1.4600     0.2570 ca         1 23       -0.044000
     33 C25         -2.2460     1.2560    -1.1300 ca         1 23       -0.148100
     34 C26         -2.3300    -0.0460    -1.6380 ca         1 23       -0.023000
     35 C27          2.4570    -2.9890     1.7570 c          1 23        0.716850
     36 O7           2.6640    -3.6340     2.7820 o          1 23       -0.599000
     37 C28          2.2220    -1.5320     1.8810 ca         1 23       -0.116100
     38 C29          2.2980    -0.9050     3.1320 ca         1 23       -0.059500
     39 C30          2.1510     0.4820     3.2330 ca         1 23       -0.059500
     40 C31          1.9260     1.2530     2.0840 ca         1 23       -0.116100
     41 C32          1.8360     2.7290     2.1780 c          1 23        0.716850
     42 O8           1.9250     3.2470     3.2880 o          1 23       -0.599000
     43 C33          1.8250     0.6280     0.8480 ca         1 23       -0.009000
     44 C34          1.9740    -0.7700     0.7450 ca         1 23       -0.009000
     45 H1          -2.7450     4.7430    -3.0570 h1         1 23        0.064700
     46 H2          -0.9820     4.6080    -2.8170 h1         1 23        0.064700
     47 H3          -2.0070     6.8360    -2.1770 hc         1 23        0.058200
     48 H4          -2.9060     6.0280    -0.8870 hc         1 23        0.058200
     49 H5          -0.7350     7.2310    -0.2550 hc         1 23        0.045950
     50 H6           0.1460     5.9820    -1.1180 hc         1 23        0.045950
     51 H7          -1.7390     5.5900     1.2710 hc         1 23        0.046450
     52 H8          -0.9200     4.2650     0.4680 hc         1 23        0.046450
     53 H9           0.1340     5.0640     2.6060 hc         1 23        0.054950
     54 H10          0.5210     6.5850     1.8180 hc         1 23        0.054950
     55 H11          1.9510     5.3700     0.1460 h1         1 23        0.076200
     56 H12          2.4890     5.1870     1.8020 h1         1 23        0.076200
     57 H13          1.2910     1.3330    -2.4610 ha         1 23        0.176250
     58 H14          1.5600    -1.0870    -2.6390 ha         1 23        0.176250
     59 H15          3.2600    -5.1510    -0.6400 h1         1 23        0.076200
     60 H16          3.7320    -5.0830     1.0440 h1         1 23        0.076200
     61 H17          2.3190    -6.9410     0.8380 hc         1 23        0.054950
     62 H18          1.3700    -5.7560     1.7200 hc         1 23        0.054950
     63 H19          0.4030    -7.2020    -0.3180 hc         1 23        0.046450
     64 H20          1.1030    -5.9410    -1.3180 hc         1 23        0.046450
     65 H21         -0.2510    -4.2490     0.0960 hc         1 23        0.045950
     66 H22         -0.9810    -5.6290     0.9120 hc         1 23        0.045950
     67 H23         -1.7230    -6.4860    -1.4020 hc         1 23        0.058200
     68 H24         -1.1270    -4.9630    -2.0640 hc         1 23        0.058200
     69 H25         -3.3600    -5.3190     0.0000 h1         1 23        0.064700
     70 H26         -3.5770    -4.8280    -1.6750 h1         1 23        0.064700
     71 H27         -2.5940    -1.7520     1.3110 ha         1 23        0.159500
     72 H28         -2.4430     0.5400     2.2010 ha         1 23        0.146000
     73 H29         -2.2500     2.4610     0.6770 ha         1 23        0.159500
     74 H30         -2.3020    -0.2110    -2.7150 ha         1 23        0.180000
     75 H31          2.4950    -1.4900     4.0290 ha         1 23        0.176250
     76 H32          2.2340     0.9600     4.2090 ha         1 23        0.176250
@<TRIPOS>BOND
     1     1     2 2   
     2     2     3 1   
     3     2    33 1   
     4     3     4 1   
     5     4     5 1   
     6     4    45 1   
     7     4    46 1   
     8     5     6 1   
     9     5    47 1   
    10     5    48 1   
    11     6     7 1   
    12     6    49 1   
    13     6    50 1   
    14     7     8 1   
    15     7    51 1   
    16     7    52 1   
    17     8     9 1   
    18     8    53 1   
    19     8    54 1   
    20     9    10 1   
    21     9    55 1   
    22     9    56 1   
    23    10    11 1   
    24    10    41 1   
    25    11    12 2   
    26    11    13 1   
    27    13    14 ar  
    28    13    43 ar  
    29    14    15 ar  
    30    14    57 1   
    31    15    16 ar  
    32    15    58 1   
    33    16    17 1   
    34    16    44 ar  
    35    17    18 2   
    36    17    19 1   
    37    19    20 1   
    38    19    35 1   
    39    20    21 1   
    40    20    59 1   
    41    20    60 1   
    42    21    22 1   
    43    21    61 1   
    44    21    62 1   
    45    22    23 1   
    46    22    63 1   
    47    22    64 1   
    48    23    24 1   
    49    23    65 1   
    50    23    66 1   
    51    24    25 1   
    52    24    67 1   
    53    24    68 1   
    54    25    26 1   
    55    25    69 1   
    56    25    70 1   
    57    26    27 1   
    58    27    28 2   
    59    27    29 1   
    60    29    30 ar  
    61    29    34 ar  
    62    30    31 ar  
    63    30    71 1   
    64    31    32 ar  
    65    31    72 1   
    66    32    33 ar  
    67    32    73 1   
    68    33    34 ar  
    69    34    74 1   
    70    35    36 2   
    71    35    37 1   
    72    37    38 ar  
    73    37    44 ar  
    74    38    39 ar  
    75    38    75 1   
    76    39    40 ar  
    77    39    76 1   
    78    40    41 1   
    79    40    43 ar  
    80    41    42 2   
    81    43    44 ar  
@<TRIPOS>SUBSTRUCTURE
     1 23          1 TEMP              0 ****  ****    0 ROOT
