@<TRIPOS>MOLECULE
41
  188   202     1     0     0
SMALL
bcc


@<TRIPOS>ATOM
      1 O1          -4.6160     0.8210     3.9870 o          1 41       -0.614125
      2 C1          -3.4600     1.1410     3.7210 c          1 41        0.722600
      3 C2          -3.0670     1.3090     2.3040 ca         1 41       -0.146725
      4 C3          -4.0380     1.1630     1.3180 ca         1 41       -0.038500
      5 C4          -3.6800     1.2400    -0.0240 ca         1 41       -0.128875
      6 C5          -2.3470     1.4580    -0.4220 ca         1 41        0.009500
      7 C6          -1.9310     1.4300    -1.8540 ca         1 41        0.009500
      8 C7          -2.8280     1.0950    -2.8870 ca         1 41       -0.128875
      9 C8          -2.4240     1.0400    -4.2170 ca         1 41       -0.038500
     10 C9          -1.1050     1.3320    -4.5540 ca         1 41       -0.146725
     11 C10         -0.6980     1.2460    -5.9740 c          1 41        0.722600
     12 O2          -1.4940     0.8150    -6.8040 o          1 41       -0.614125
     13 N1           0.6010     1.6350    -6.2810 n          1 41       -0.488900
     14 C11          1.0070     1.5520    -7.6810 c3         1 41        0.049500
     15 C12          1.4420     0.1340    -8.0730 c3         1 41        0.115150
     16 O3           1.6200     0.0230    -9.4840 os         1 41       -0.418350
     17 C13          0.4200    -0.2980   -10.2020 c3         1 41        0.103900
     18 C14          0.1320    -1.8040   -10.2190 c3         1 41        0.109900
     19 O4           1.1400    -2.4670   -10.9860 os         1 41       -0.425350
     20 C15          0.8410    -3.8360   -11.2740 c3         1 41        0.109900
     21 C16          0.8620    -4.7320   -10.0330 c3         1 41        0.100400
     22 O5          -0.4380    -4.7440    -9.4240 os         1 41       -0.427850
     23 C17         -0.4400    -5.5180    -8.2180 c3         1 41        0.129650
     24 C18         -1.8800    -5.6600    -7.7350 c3         1 41       -0.040050
     25 S1          -2.0010    -6.6610    -6.2130 ss         1 41       -0.167350
     26 S2          -1.2720    -5.3780    -4.7780 ss         1 41       -0.167350
     27 C19         -2.7790    -4.5000    -4.2300 c3         1 41       -0.040050
     28 C20         -3.5840    -5.2910    -3.1970 c3         1 41        0.129650
     29 O6          -2.8320    -5.3880    -1.9860 os         1 41       -0.427850
     30 C21         -3.6040    -5.7570    -0.8450 c3         1 41        0.100400
     31 C22         -4.1600    -7.1810    -0.8880 c3         1 41        0.109900
     32 O7          -4.6800    -7.6000     0.3760 os         1 41       -0.425350
     33 C23         -5.8550    -6.9000     0.7900 c3         1 41        0.109900
     34 C24         -5.5740    -6.1270     2.0780 c3         1 41        0.103900
     35 O8          -6.7140    -5.3430     2.4190 os         1 41       -0.418350
     36 C25         -6.5170    -4.5430     3.5890 c3         1 41        0.115150
     37 C26         -6.2940    -3.0650     3.2320 c3         1 41        0.049500
     38 N2          -4.9440    -2.7910     2.7380 n          1 41       -0.488900
     39 C27         -3.9260    -2.7050     3.6830 c          1 41        0.722600
     40 O9          -4.0990    -2.8750     4.8880 o          1 41       -0.614125
     41 C28         -2.5630    -2.4150     3.1810 ca         1 41       -0.146725
     42 C29         -1.5260    -2.2610     4.0960 ca         1 41       -0.038500
     43 C30         -0.2370    -1.9840     3.6470 ca         1 41       -0.128875
     44 C31          0.0600    -1.8650     2.2750 ca         1 41        0.009500
     45 C32          1.4290    -1.5400     1.7810 ca         1 41        0.009500
     46 C33          2.4900    -1.2340     2.6550 ca         1 41       -0.128875
     47 C34          3.7680    -0.9510     2.1820 ca         1 41       -0.038500
     48 C35          4.0250    -0.9710     0.8130 ca         1 41       -0.146725
     49 C36          5.3980    -0.6780     0.3390 c          1 41        0.722600
     50 O10          6.2670    -0.4150     1.1660 o          1 41       -0.614125
     51 N3           5.6100    -0.7070    -1.0360 n          1 41       -0.488900
     52 C37          6.9410    -0.3650    -1.5430 c3         1 41        0.049500
     53 C38          7.0370     1.0810    -2.0540 c3         1 41        0.115150
     54 O11          7.0060     2.0120    -0.9690 os         1 41       -0.418350
     55 C39          5.7340     2.6270    -0.7970 c3         1 41        0.103900
     56 C40          5.6570     3.2510     0.5930 c3         1 41        0.109900
     57 O12          4.3570     3.8150     0.7800 os         1 41       -0.425350
     58 C41          4.1220     4.2420     2.1240 c3         1 41        0.109900
     59 C42          4.9330     5.4730     2.5270 c3         1 41        0.100400
     60 O13          4.4900     5.9170     3.8080 os         1 41       -0.427850
     61 C43          5.2590     7.0200     4.2880 c3         1 41        0.129650
     62 C44          4.7830     7.4310     5.6810 c3         1 41       -0.040050
     63 S3           5.5180     6.4430     7.0400 ss         1 41       -0.167350
     64 S4           4.6940     4.5720     6.8050 ss         1 41       -0.167350
     65 C45          3.0510     4.7430     7.5820 c3         1 41       -0.040050
     66 C46          3.1290     4.9310     9.0970 c3         1 41        0.129650
     67 O14          1.8280     4.9350     9.6970 os         1 41       -0.427850
     68 C47          1.1200     6.1690     9.5240 c3         1 41        0.100400
     69 C48         -0.2550     5.8860     8.9180 c3         1 41        0.109900
     70 O15         -0.0860     5.5570     7.5370 os         1 41       -0.425350
     71 C49         -1.3100     5.2860     6.8570 c3         1 41        0.109900
     72 C50         -1.9070     3.9240     7.2140 c3         1 41        0.103900
     73 O16         -2.9920     3.6570     6.3250 os         1 41       -0.418350
     74 C51         -3.6500     2.4120     6.5780 c3         1 41        0.115150
     75 C52         -2.8570     1.1930     6.0820 c3         1 41        0.049500
     76 N4          -2.4680     1.3170     4.6770 n          1 41       -0.488900
     77 C53         -1.1330     1.5750     4.3840 c          1 41        0.722600
     78 O17         -0.2410     1.6300     5.2260 o          1 41       -0.614125
     79 C54         -0.7790     1.7430     2.9560 ca         1 41       -0.146725
     80 C55          0.5420     2.0290     2.6200 ca         1 41       -0.038500
     81 C56          0.9120     2.1330     1.2830 ca         1 41       -0.128875
     82 C57         -0.0180     1.9540     0.2410 ca         1 41        0.009500
     83 C58          0.3780     2.0180    -1.1950 ca         1 41        0.009500
     84 C59          1.6870     2.3450    -1.5990 ca         1 41       -0.128875
     85 C60          2.0660     2.3260    -2.9390 ca         1 41       -0.038500
     86 C61          1.1380     1.9830    -3.9180 ca         1 41       -0.146725
     87 C62          1.5700     1.9500    -5.3360 c          1 41        0.722600
     88 O18          2.7430     2.1810    -5.6130 o          1 41       -0.614125
     89 C63         -0.1800     1.6800    -3.5680 ca         1 41        0.017750
     90 C64         -0.5810     1.7130    -2.1970 ca         1 41       -0.033750
     91 C65         -1.3680     1.6730     0.5840 ca         1 41       -0.033750
     92 C66         -1.7420     1.5820     1.9600 ca         1 41        0.017750
     93 C67          4.6190    -0.9650    -1.9770 c          1 41        0.722600
     94 O19          4.8110    -0.9310    -3.1900 o          1 41       -0.614125
     95 C68          3.2640    -1.2660    -1.4650 ca         1 41       -0.146725
     96 C69          2.2530    -1.5570    -2.3760 ca         1 41       -0.038500
     97 C70          0.9630    -1.8110    -1.9220 ca         1 41       -0.128875
     98 C71          0.6430    -1.7780    -0.5500 ca         1 41        0.009500
     99 C72         -0.7460    -1.9900    -0.0550 ca         1 41        0.009500
    100 C73         -1.8380    -2.1130    -0.9320 ca         1 41       -0.128875
    101 C74         -3.1320    -2.3160    -0.4650 ca         1 41       -0.038500
    102 C75         -3.3680    -2.4250     0.9020 ca         1 41       -0.146725
    103 C76         -4.7540    -2.6630     1.3670 c          1 41        0.722600
    104 O20         -5.6490    -2.7430     0.5300 o          1 41       -0.614125
    105 C77         -2.3190    -2.3030     1.8120 ca         1 41        0.017750
    106 C78         -0.9930    -2.0540     1.3410 ca         1 41       -0.033750
    107 C79          1.6840    -1.5270     0.3820 ca         1 41       -0.033750
    108 C80          3.0020    -1.2530    -0.0940 ca         1 41        0.017750
    109 H1          -5.0770     0.9700     1.5840 ha         1 41        0.170500
    110 H2          -4.4810     1.1050    -0.7450 ha         1 41        0.154750
    111 H3          -3.8680     0.8530    -2.6870 ha         1 41        0.154750
    112 H4          -3.1460     0.7710    -4.9860 ha         1 41        0.170500
    113 H5           0.1750     1.8850    -8.3120 h1         1 41        0.081700
    114 H6           1.8280     2.2520    -7.8810 h1         1 41        0.081700
    115 H7           2.4070    -0.0860    -7.6040 h1         1 41        0.064075
    116 H8           0.7370    -0.6220    -7.7090 h1         1 41        0.064075
    117 H9           0.5780     0.0480   -11.2290 h1         1 41        0.049075
    118 H10         -0.4310     0.2520    -9.7880 h1         1 41        0.049075
    119 H11         -0.8480    -1.9750   -10.6790 h1         1 41        0.055075
    120 H12          0.1350    -2.2030    -9.2020 h1         1 41        0.055075
    121 H13          1.6280    -4.1710   -11.9580 h1         1 41        0.055700
    122 H14         -0.1150    -3.8970   -11.8050 h1         1 41        0.055700
    123 H15          1.1000    -5.7580   -10.3350 h1         1 41        0.052200
    124 H16          1.6050    -4.3770    -9.3110 h1         1 41        0.052200
    125 H17          0.1800    -5.0010    -7.4770 h1         1 41        0.049075
    126 H18         -0.0100    -6.5060    -8.4200 h1         1 41        0.049075
    127 H19         -2.4730    -6.1550    -8.5120 h1         1 41        0.096075
    128 H20         -2.3450    -4.6790    -7.5840 h1         1 41        0.096075
    129 H21         -2.4440    -3.5580    -3.7850 h1         1 41        0.096075
    130 H22         -3.3970    -4.2530    -5.0990 h1         1 41        0.096075
    131 H23         -4.5180    -4.7520    -3.0010 h1         1 41        0.049075
    132 H24         -3.8330    -6.2930    -3.5630 h1         1 41        0.049075
    133 H25         -2.9480    -5.6590     0.0280 h1         1 41        0.052200
    134 H26         -4.4080    -5.0290    -0.7020 h1         1 41        0.052200
    135 H27         -3.3560    -7.8740    -1.1580 h1         1 41        0.055700
    136 H28         -4.9330    -7.2880    -1.6580 h1         1 41        0.055700
    137 H29         -6.6380    -7.6430     0.9790 h1         1 41        0.055075
    138 H30         -6.2460    -6.2370     0.0090 h1         1 41        0.055075
    139 H31         -4.6950    -5.4880     1.9480 h1         1 41        0.049075
    140 H32         -5.3500    -6.8330     2.8870 h1         1 41        0.049075
    141 H33         -5.7170    -4.9450     4.2220 h1         1 41        0.064075
    142 H34         -7.4490    -4.6140     4.1610 h1         1 41        0.064075
    143 H35         -6.4520    -2.4560     4.1300 h1         1 41        0.081700
    144 H36         -7.0320    -2.7510     2.4870 h1         1 41        0.081700
    145 H37         -1.7110    -2.3500     5.1660 ha         1 41        0.170500
    146 H38          0.5270    -1.8670     4.4110 ha         1 41        0.154750
    147 H39          2.3540    -1.1990     3.7320 ha         1 41        0.154750
    148 H40          4.5620    -0.7220     2.8920 ha         1 41        0.170500
    149 H41          7.1780    -1.0500    -2.3660 h1         1 41        0.081700
    150 H42          7.6850    -0.5250    -0.7560 h1         1 41        0.081700
    151 H43          8.0110     1.2060    -2.5390 h1         1 41        0.064075
    152 H44          6.2700     1.3150    -2.8010 h1         1 41        0.064075
    153 H45          5.5950     3.3960    -1.5660 h1         1 41        0.049075
    154 H46          4.9190     1.9050    -0.9130 h1         1 41        0.049075
    155 H47          6.4260     4.0260     0.6870 h1         1 41        0.055075
    156 H48          5.8520     2.4870     1.3530 h1         1 41        0.055075
    157 H49          4.2930     3.4130     2.8210 h1         1 41        0.055700
    158 H50          3.0550     4.4820     2.2020 h1         1 41        0.055700
    159 H51          4.8000     6.2700     1.7870 h1         1 41        0.052200
    160 H52          6.0000     5.2260     2.5730 h1         1 41        0.052200
    161 H53          5.1000     7.8610     3.6040 h1         1 41        0.049075
    162 H54          6.3280     6.7750     4.2870 h1         1 41        0.049075
    163 H55          5.0940     8.4640     5.8660 h1         1 41        0.096075
    164 H56          3.6920     7.3910     5.7610 h1         1 41        0.096075
    165 H57          2.4750     3.8380     7.3590 h1         1 41        0.096075
    166 H58          2.5160     5.5670     7.1010 h1         1 41        0.096075
    167 H59          3.6670     4.0860     9.5430 h1         1 41        0.049075
    168 H60          3.6630     5.8440     9.3850 h1         1 41        0.049075
    169 H61          0.9990     6.6090    10.5180 h1         1 41        0.052200
    170 H62          1.6780     6.8740     8.8970 h1         1 41        0.052200
    171 H63         -0.7270     5.0510     9.4440 h1         1 41        0.055700
    172 H64         -0.8840     6.7790     8.9970 h1         1 41        0.055700
    173 H65         -1.0900     5.3050     5.7830 h1         1 41        0.055075
    174 H66         -2.0340     6.0910     7.0320 h1         1 41        0.055075
    175 H67         -2.2770     3.9300     8.2450 h1         1 41        0.049075
    176 H68         -1.1370     3.1520     7.1390 h1         1 41        0.049075
    177 H69         -4.6110     2.4620     6.0570 h1         1 41        0.064075
    178 H70         -3.8750     2.3150     7.6470 h1         1 41        0.064075
    179 H71         -1.9700     1.0490     6.7070 h1         1 41        0.081700
    180 H72         -3.4750     0.2940     6.1970 h1         1 41        0.081700
    181 H73          1.2960     2.1590     3.3950 ha         1 41        0.170500
    182 H74          1.9600     2.3370     1.0860 ha         1 41        0.154750
    183 H75          2.4530     2.6270    -0.8820 ha         1 41        0.154750
    184 H76          3.0900     2.5760    -3.2100 ha         1 41        0.170500
    185 H77          2.4610    -1.5840    -3.4450 ha         1 41        0.170500
    186 H78          0.2190    -2.0410    -2.6790 ha         1 41        0.154750
    187 H79         -1.7170    -2.0440    -2.0080 ha         1 41        0.154750
    188 H80         -3.9480    -2.4030    -1.1780 ha         1 41        0.170500
@<TRIPOS>BOND
     1     1     2 2   
     2     2     3 1   
     3     2    76 1   
     4     3     4 ar  
     5     3    92 ar  
     6     4     5 ar  
     7     4   109 1   
     8     5     6 ar  
     9     5   110 1   
    10     6     7 ar  
    11     6    91 ar  
    12     7     8 ar  
    13     7    90 ar  
    14     8     9 ar  
    15     8   111 1   
    16     9    10 ar  
    17     9   112 1   
    18    10    11 1   
    19    10    89 ar  
    20    11    12 2   
    21    11    13 1   
    22    13    14 1   
    23    13    87 1   
    24    14    15 1   
    25    14   113 1   
    26    14   114 1   
    27    15    16 1   
    28    15   115 1   
    29    15   116 1   
    30    16    17 1   
    31    17    18 1   
    32    17   117 1   
    33    17   118 1   
    34    18    19 1   
    35    18   119 1   
    36    18   120 1   
    37    19    20 1   
    38    20    21 1   
    39    20   121 1   
    40    20   122 1   
    41    21    22 1   
    42    21   123 1   
    43    21   124 1   
    44    22    23 1   
    45    23    24 1   
    46    23   125 1   
    47    23   126 1   
    48    24    25 1   
    49    24   127 1   
    50    24   128 1   
    51    25    26 1   
    52    26    27 1   
    53    27    28 1   
    54    27   129 1   
    55    27   130 1   
    56    28    29 1   
    57    28   131 1   
    58    28   132 1   
    59    29    30 1   
    60    30    31 1   
    61    30   133 1   
    62    30   134 1   
    63    31    32 1   
    64    31   135 1   
    65    31   136 1   
    66    32    33 1   
    67    33    34 1   
    68    33   137 1   
    69    33   138 1   
    70    34    35 1   
    71    34   139 1   
    72    34   140 1   
    73    35    36 1   
    74    36    37 1   
    75    36   141 1   
    76    36   142 1   
    77    37    38 1   
    78    37   143 1   
    79    37   144 1   
    80    38    39 1   
    81    38   103 1   
    82    39    40 2   
    83    39    41 1   
    84    41    42 ar  
    85    41   105 ar  
    86    42    43 ar  
    87    42   145 1   
    88    43    44 ar  
    89    43   146 1   
    90    44    45 ar  
    91    44   106 ar  
    92    45    46 ar  
    93    45   107 ar  
    94    46    47 ar  
    95    46   147 1   
    96    47    48 ar  
    97    47   148 1   
    98    48    49 1   
    99    48   108 ar  
   100    49    50 2   
   101    49    51 1   
   102    51    52 1   
   103    51    93 1   
   104    52    53 1   
   105    52   149 1   
   106    52   150 1   
   107    53    54 1   
   108    53   151 1   
   109    53   152 1   
   110    54    55 1   
   111    55    56 1   
   112    55   153 1   
   113    55   154 1   
   114    56    57 1   
   115    56   155 1   
   116    56   156 1   
   117    57    58 1   
   118    58    59 1   
   119    58   157 1   
   120    58   158 1   
   121    59    60 1   
   122    59   159 1   
   123    59   160 1   
   124    60    61 1   
   125    61    62 1   
   126    61   161 1   
   127    61   162 1   
   128    62    63 1   
   129    62   163 1   
   130    62   164 1   
   131    63    64 1   
   132    64    65 1   
   133    65    66 1   
   134    65   165 1   
   135    65   166 1   
   136    66    67 1   
   137    66   167 1   
   138    66   168 1   
   139    67    68 1   
   140    68    69 1   
   141    68   169 1   
   142    68   170 1   
   143    69    70 1   
   144    69   171 1   
   145    69   172 1   
   146    70    71 1   
   147    71    72 1   
   148    71   173 1   
   149    71   174 1   
   150    72    73 1   
   151    72   175 1   
   152    72   176 1   
   153    73    74 1   
   154    74    75 1   
   155    74   177 1   
   156    74   178 1   
   157    75    76 1   
   158    75   179 1   
   159    75   180 1   
   160    76    77 1   
   161    77    78 2   
   162    77    79 1   
   163    79    80 ar  
   164    79    92 ar  
   165    80    81 ar  
   166    80   181 1   
   167    81    82 ar  
   168    81   182 1   
   169    82    83 ar  
   170    82    91 ar  
   171    83    84 ar  
   172    83    90 ar  
   173    84    85 ar  
   174    84   183 1   
   175    85    86 ar  
   176    85   184 1   
   177    86    87 1   
   178    86    89 ar  
   179    87    88 2   
   180    89    90 ar  
   181    91    92 ar  
   182    93    94 2   
   183    93    95 1   
   184    95    96 ar  
   185    95   108 ar  
   186    96    97 ar  
   187    96   185 1   
   188    97    98 ar  
   189    97   186 1   
   190    98    99 ar  
   191    98   107 ar  
   192    99   100 ar  
   193    99   106 ar  
   194   100   101 ar  
   195   100   187 1   
   196   101   102 ar  
   197   101   188 1   
   198   102   103 1   
   199   102   105 ar  
   200   103   104 2   
   201   105   106 ar  
   202   107   108 ar  
@<TRIPOS>SUBSTRUCTURE
     1 41          1 TEMP              0 ****  ****    0 ROOT
