@<TRIPOS>MOLECULE
201
  114   118     1     0     0
SMALL
bcc


@<TRIPOS>ATOM
      1 O            6.0380     3.8050     3.5590 oh         0 201      -0.602600
      2 C            5.8860     3.7910     2.2250 c          0 201       0.625850
      3 O1           6.8280     3.5350     1.5130 o          0 201      -0.560000
      4 C1           4.5420     4.0950     1.6160 c3         0 201       0.138550
      5 N            4.5850     3.8130     0.1430 n3         0 201      -0.746350
      6 C2           4.4590     2.3280     0.1430 c3         0 201       0.162050
      7 C3           5.8530     1.7110     0.2380 c3         0 201       0.162050
      8 N1           5.8200     0.4070    -0.4990 n3         0 201      -0.746350
      9 C4           6.6030     0.7600    -1.7310 c3         0 201       0.138550
     10 C5           6.3500    -0.2720    -2.8000 c          0 201       0.625850
     11 O2           7.0490    -0.2380    -3.9450 oh         0 201      -0.602600
     12 O3           5.5170    -1.1310    -2.6260 o          0 201      -0.560000
     13 C6           6.8400    -0.3940     0.2580 c3         0 201       0.109550
     14 C7           6.2580    -1.7400     0.5860 c          0 201       0.651600
     15 O4           6.0920    -2.0450     1.7460 o          0 201      -0.598600
     16 N2           5.9680    -2.5880    -0.4280 n          0 201      -0.469600
     17 C8           5.1810    -3.7250    -0.1690 ca         0 201       0.039100
     18 C9           5.1560    -4.7460    -1.1080 ca         0 201      -0.142250
     19 C10          4.3940    -5.8770    -0.8830 ca         0 201      -0.131625
     20 C11          3.6390    -5.9980     0.2790 ca         0 201       0.081100
     21 O5           2.9200    -7.1190     0.4850 os         0 201      -0.245200
     22 C12          1.5830    -6.9510     0.3610 ca         0 201       0.081100
     23 C13          1.0120    -6.2820    -0.7060 ca         0 201      -0.131625
     24 C14         -0.3630    -6.1640    -0.7950 ca         0 201      -0.142250
     25 C15         -1.1820    -6.7190     0.1710 ca         0 201       0.039100
     26 N3          -2.5670    -6.6610     0.1240 n          0 201      -0.469600
     27 C16         -3.4340    -5.8580    -0.4210 c          0 201       0.651600
     28 O6          -4.4380    -6.3630    -0.8790 o          0 201      -0.598600
     29 C17         -3.3480    -4.3650    -0.5080 c3         0 201       0.109550
     30 N4          -4.6490    -3.8040     0.0030 n3         0 201      -0.746350
     31 C18         -4.4810    -4.0010     1.4850 c3         0 201       0.138550
     32 C19         -5.8210    -3.8730     2.1630 c          0 201       0.625850
     33 O7          -5.8980    -3.8750     3.5040 oh         0 201      -0.602600
     34 O8          -6.8260    -3.7690     1.5010 o          0 201      -0.560000
     35 C20         -4.4000    -2.3360    -0.1060 c3         0 201       0.162050
     36 C21         -5.7050    -1.6100    -0.3990 c3         0 201       0.162050
     37 N5          -5.6260    -0.2490     0.2310 n3         0 201      -0.746350
     38 C22         -4.5660     0.3840    -0.6260 c3         0 201       0.138550
     39 C23         -4.9540     0.2630    -2.0770 c          0 201       0.625850
     40 O9          -4.0710     0.5780    -3.0370 oh         0 201      -0.602600
     41 O10         -6.0610    -0.1180    -2.3760 o          0 201      -0.560000
     42 C24         -6.8670     0.4010    -0.3120 c3         0 201       0.109550
     43 C25         -6.6130     1.8640    -0.5130 c          0 201       0.651600
     44 O11         -6.7270     2.3350    -1.6290 o          0 201      -0.598600
     45 N6          -6.3130     2.6640     0.5380 n          0 201      -0.469600
     46 C26         -5.5400     3.8160     0.3230 ca         0 201       0.039100
     47 C27         -4.8520     3.9800    -0.8680 ca         0 201      -0.142250
     48 C28         -4.0750     5.1040    -1.0790 ca         0 201      -0.131625
     49 C29         -3.9800     6.0790    -0.0920 ca         0 201       0.081100
     50 O12         -3.2160     7.1630    -0.2930 os         0 201      -0.245200
     51 C30         -1.9000     6.9330    -0.0610 ca         0 201       0.081100
     52 C31         -1.1070     6.3730    -1.0540 ca         0 201      -0.131625
     53 C32          0.2360     6.1580    -0.8310 ca         0 201      -0.142250
     54 C33          0.8010     6.5040     0.3850 ca         0 201       0.039100
     55 N7           2.1560     6.3410     0.6550 n          0 201      -0.469600
     56 C34          3.1090     5.7280     0.0080 c          0 201       0.651600
     57 O13          4.0300     6.4050    -0.3910 o          0 201      -0.598600
     58 C35          3.2140     4.2610    -0.2780 c3         0 201       0.109550
     59 C36         -0.0080     7.0430     1.3910 ca         0 201      -0.142250
     60 C37         -1.3490     7.2550     1.1680 ca         0 201      -0.131625
     61 C38         -4.6860     5.9190     1.0950 ca         0 201      -0.131625
     62 C39         -5.4660     4.7960     1.3050 ca         0 201      -0.142250
     63 C40         -0.6010    -7.3740     1.2640 ca         0 201      -0.142250
     64 C41          0.7660    -7.4850     1.3550 ca         0 201      -0.131625
     65 C42          3.6480    -4.9640     1.2020 ca         0 201      -0.131625
     66 C43          4.4070    -3.8320     0.9760 ca         0 201      -0.142250
     67 H            6.9010     3.6100     3.9490 ho         0 201       0.448500
     68 H1           3.7810     3.4700     2.0840 h1         0 201       0.085325
     69 H2           4.2990     5.1460     1.7780 h1         0 201       0.085325
     70 H3           3.8600     2.0380     0.9990 h1         0 201       0.062700
     71 H4           3.9780     2.0340    -0.7840 h1         0 201       0.062700
     72 H5           6.5830     2.3530    -0.2440 h1         0 201       0.062700
     73 H6           6.1160     1.5260     1.2690 h1         0 201       0.062700
     74 H7           6.2910     1.7400    -2.0920 h1         0 201       0.085325
     75 H8           7.6660     0.7820    -1.4920 h1         0 201       0.085325
     76 H9           6.8860    -0.9000    -4.6310 ho         0 201       0.448500
     77 H10          7.7060    -0.5220    -0.3850 h1         0 201       0.078950
     78 H11          7.1040     0.1280     1.1640 h1         0 201       0.078950
     79 H12          6.3030    -2.4120    -1.3330 hn         0 201       0.333750
     80 H13          5.7370    -4.6550    -2.0150 ha         0 201       0.149875
     81 H14          4.3840    -6.6760    -1.6110 ha         0 201       0.152125
     82 H15          1.6360    -5.8450    -1.4730 ha         0 201       0.152125
     83 H16         -0.7960    -5.6240    -1.6260 ha         0 201       0.149875
     84 H17         -2.9970    -7.3940     0.6200 hn         0 201       0.333750
     85 H18         -2.5490    -3.9930     0.1240 h1         0 201       0.078950
     86 H19         -3.2180    -4.0480    -1.5340 h1         0 201       0.078950
     87 H20         -4.0700    -4.9920     1.6760 h1         0 201       0.085325
     88 H21         -3.8020    -3.2440     1.8770 h1         0 201       0.085325
     89 H22         -6.7570    -3.7930     3.9390 ho         0 201       0.448500
     90 H23         -3.9930    -2.0080     0.8450 h1         0 201       0.062700
     91 H24         -3.6900    -2.1880    -0.9120 h1         0 201       0.062700
     92 H25         -5.8420    -1.4840    -1.4670 h1         0 201       0.062700
     93 H26         -6.5450    -2.1350     0.0460 h1         0 201       0.062700
     94 H27         -4.4670     1.4370    -0.3630 h1         0 201       0.085325
     95 H28         -3.6150    -0.1230    -0.4610 h1         0 201       0.085325
     96 H29         -4.3210     0.5010    -3.9680 ho         0 201       0.448500
     97 H30         -7.1110    -0.0690    -1.2560 h1         0 201       0.078950
     98 H31         -7.6620     0.2520     0.4110 h1         0 201       0.078950
     99 H32         -6.6350     2.4440     1.4380 hn         0 201       0.333750
    100 H33         -4.9040     3.2300    -1.6430 ha         0 201       0.149875
    101 H34         -3.5430     5.2250    -2.0110 ha         0 201       0.152125
    102 H35         -1.5440     6.1080    -2.0060 ha         0 201       0.152125
    103 H36          0.8510     5.7190    -1.6050 ha         0 201       0.149875
    104 H37          2.4550     6.7660     1.4870 hn         0 201       0.333750
    105 H38          3.1100     4.0700    -1.3400 h1         0 201       0.078950
    106 H39          2.4810     3.7070     0.2950 h1         0 201       0.078950
    107 H40          0.4240     7.2930     2.3490 ha         0 201       0.149875
    108 H41         -1.9690     7.6720     1.9490 ha         0 201       0.152125
    109 H42         -4.6250     6.6830     1.8560 ha         0 201       0.152125
    110 H43         -6.0200     4.6760     2.2250 ha         0 201       0.149875
    111 H44         -1.2330    -7.7950     2.0330 ha         0 201       0.149875
    112 H45          1.2100    -7.9980     2.1960 ha         0 201       0.152125
    113 H46          3.0580    -5.0410     2.1040 ha         0 201       0.152125
    114 H47          4.3710    -3.0270     1.6960 ha         0 201       0.149875
@<TRIPOS>BOND
     1     1     2 1   
     2     1    67 1   
     3     2     3 2   
     4     2     4 1   
     5     4     5 1   
     6     4    68 1   
     7     4    69 1   
     8     5     6 1   
     9     5    58 1   
    10     6     7 1   
    11     6    70 1   
    12     6    71 1   
    13     7     8 1   
    14     7    72 1   
    15     7    73 1   
    16     8     9 1   
    17     8    13 1   
    18     9    10 1   
    19     9    74 1   
    20     9    75 1   
    21    10    11 1   
    22    10    12 2   
    23    11    76 1   
    24    13    14 1   
    25    13    77 1   
    26    13    78 1   
    27    14    15 2   
    28    14    16 1   
    29    16    17 1   
    30    16    79 1   
    31    17    18 ar  
    32    17    66 ar  
    33    18    19 ar  
    34    18    80 1   
    35    19    20 ar  
    36    19    81 1   
    37    20    21 1   
    38    20    65 ar  
    39    21    22 1   
    40    22    23 ar  
    41    22    64 ar  
    42    23    24 ar  
    43    23    82 1   
    44    24    25 ar  
    45    24    83 1   
    46    25    26 1   
    47    25    63 ar  
    48    26    27 1   
    49    26    84 1   
    50    27    28 2   
    51    27    29 1   
    52    29    30 1   
    53    29    85 1   
    54    29    86 1   
    55    30    31 1   
    56    30    35 1   
    57    31    32 1   
    58    31    87 1   
    59    31    88 1   
    60    32    33 1   
    61    32    34 2   
    62    33    89 1   
    63    35    36 1   
    64    35    90 1   
    65    35    91 1   
    66    36    37 1   
    67    36    92 1   
    68    36    93 1   
    69    37    38 1   
    70    37    42 1   
    71    38    39 1   
    72    38    94 1   
    73    38    95 1   
    74    39    40 1   
    75    39    41 2   
    76    40    96 1   
    77    42    43 1   
    78    42    97 1   
    79    42    98 1   
    80    43    44 2   
    81    43    45 1   
    82    45    46 1   
    83    45    99 1   
    84    46    47 ar  
    85    46    62 ar  
    86    47    48 ar  
    87    47   100 1   
    88    48    49 ar  
    89    48   101 1   
    90    49    50 1   
    91    49    61 ar  
    92    50    51 1   
    93    51    52 ar  
    94    51    60 ar  
    95    52    53 ar  
    96    52   102 1   
    97    53    54 ar  
    98    53   103 1   
    99    54    55 1   
   100    54    59 ar  
   101    55    56 1   
   102    55   104 1   
   103    56    57 2   
   104    56    58 1   
   105    58   105 1   
   106    58   106 1   
   107    59    60 ar  
   108    59   107 1   
   109    60   108 1   
   110    61    62 ar  
   111    61   109 1   
   112    62   110 1   
   113    63    64 ar  
   114    63   111 1   
   115    64   112 1   
   116    65    66 ar  
   117    65   113 1   
   118    66   114 1   
@<TRIPOS>SUBSTRUCTURE
     1 201         1 TEMP              0 ****  ****    0 ROOT
