@<TRIPOS>MOLECULE
21
  102   114     1     0     0
SMALL
bcc


@<TRIPOS>ATOM
      1 O1           2.8030    -3.6720    -5.3730 o          1 21       -0.555500
      2 C1           3.5540    -2.9950    -4.6990 c          1 21        0.722100
      3 C2           3.5420    -1.5320    -4.6890 ca         1 21       -0.123600
      4 C3           2.7510    -0.6460    -5.4020 ca         1 21       -0.011000
      5 C4           3.0630     0.6880    -5.2040 ca         1 21       -0.123600
      6 C5           2.5010     1.8850    -5.8300 c          1 21        0.722100
      7 O2           1.6090     1.8610    -6.6560 o          1 21       -0.555500
      8 N1           3.1970     2.9490    -5.3290 n          1 21       -0.518400
      9 C6           2.9900     4.3150    -5.7520 c3         1 21        0.149300
     10 C7           1.9790     5.0330    -4.8930 ca         1 21       -0.115300
     11 C8           0.6190     5.0090    -5.2260 ca         1 21       -0.113000
     12 C9          -0.3100     5.7180    -4.4610 ca         1 21       -0.113000
     13 C10          0.1060     6.4640    -3.3510 ca         1 21       -0.115300
     14 C11          1.4580     6.4410    -2.9850 ca         1 21       -0.113000
     15 C12          2.3870     5.7320    -3.7490 ca         1 21       -0.113000
     16 C13         -0.8880     7.2770    -2.5590 c3         1 21        0.149300
     17 N2          -1.4800     6.5200    -1.4800 n          1 21       -0.518400
     18 C14         -2.6440     5.8140    -1.5950 c          1 21        0.722100
     19 O3          -3.3640     5.6590    -2.5620 o          1 21       -0.555500
     20 C15         -2.9310     5.2660    -0.2700 ca         1 21       -0.123600
     21 C16         -4.0130     4.5190     0.1660 ca         1 21       -0.011000
     22 C17         -4.0010     4.2290     1.5200 ca         1 21       -0.123600
     23 C18         -4.9950     3.5340     2.3380 c          1 21        0.722100
     24 O4          -6.0300     3.0740     1.8980 o          1 21       -0.555500
     25 N3          -4.5290     3.5630     3.6220 n          1 21       -0.518400
     26 C19         -5.2590     3.0390     4.7530 c3         1 21        0.149300
     27 C20         -4.9110     1.6000     5.0420 ca         1 21       -0.115300
     28 C21         -5.6300     0.5590     4.4390 ca         1 21       -0.113000
     29 C22         -5.3430    -0.7720     4.7470 ca         1 21       -0.113000
     30 C23         -4.3320    -1.0860     5.6650 ca         1 21       -0.115300
     31 C24         -3.5750    -0.0480     6.2240 ca         1 21       -0.113000
     32 C25         -3.8620     1.2830     5.9150 ca         1 21       -0.113000
     33 C26         -4.0590    -2.5210     6.0420 c3         1 21        0.149300
     34 N4          -3.0830    -3.1400     5.1760 n          1 21       -0.518400
     35 C27         -3.4030    -3.8400     4.0470 c          1 21        0.722100
     36 O5          -4.4920    -4.0550     3.5510 o          1 21       -0.555500
     37 C28         -2.1470    -4.3630     3.5120 ca         1 21       -0.123600
     38 C29         -1.9210    -5.1760     2.4130 ca         1 21       -0.011000
     39 C30         -0.5980    -5.5460     2.2370 ca         1 21       -0.123600
     40 C31          0.0000    -6.4400     1.2460 c          1 21        0.722100
     41 O6          -0.6320    -7.0030     0.3740 o          1 21       -0.555500
     42 N5           1.3320    -6.5120     1.5420 n          1 21       -0.518400
     43 C32          2.2680    -7.3540     0.8330 c3         1 21        0.149300
     44 C33          2.9320    -6.6330    -0.3140 ca         1 21       -0.115300
     45 C34          4.1270    -5.9300    -0.1160 ca         1 21       -0.113000
     46 C35          4.7690    -5.3080    -1.1900 ca         1 21       -0.113000
     47 C36          4.2260    -5.3780    -2.4790 ca         1 21       -0.115300
     48 C37          3.0010    -6.0320    -2.6660 ca         1 21       -0.113000
     49 C38          2.3590    -6.6540    -1.5930 ca         1 21       -0.113000
     50 C39          4.9480    -4.7560    -3.6490 c3         1 21        0.149300
     51 N6           4.5620    -3.3800    -3.8620 n          1 21       -0.518400
     52 C40          5.2160    -2.3140    -3.3110 c          1 21        0.722100
     53 O7           6.1710    -2.2930    -2.5600 o          1 21       -0.555500
     54 C41          4.5660    -1.1120    -3.8340 ca         1 21       -0.123600
     55 C42          4.8720     0.2220    -3.6300 ca         1 21       -0.011000
     56 C43          4.0870     1.1080    -4.3490 ca         1 21       -0.123600
     57 C44          4.1630     2.5650    -4.4420 c          1 21        0.722100
     58 O8           4.9780     3.2400    -3.8430 o          1 21       -0.555500
     59 C45          1.6620    -5.7590     2.6340 c          1 21        0.722100
     60 O9           2.7370    -5.6240     3.1860 o          1 21       -0.555500
     61 C46          0.4260    -5.1270     3.0920 ca         1 21       -0.123600
     62 C47          0.2010    -4.3070     4.1850 ca         1 21       -0.011000
     63 C48         -1.1230    -3.9440     4.3670 ca         1 21       -0.123600
     64 C49         -1.7410    -3.1600     5.4350 c          1 21        0.722100
     65 O10         -1.1230    -2.6760     6.3630 o          1 21       -0.555500
     66 C50         -3.3320     4.2150     3.7260 c          1 21        0.722100
     67 O11         -2.6610     4.4530     4.7110 o          1 21       -0.555500
     68 C51         -2.9770     4.6480     2.3750 ca         1 21       -0.123600
     69 C52         -1.8910     5.3880     1.9370 ca         1 21       -0.011000
     70 C53         -1.9070     5.6850     0.5850 ca         1 21       -0.123600
     71 C54         -0.9810     6.4940    -0.2070 c          1 21        0.722100
     72 O12          0.0040     7.0370     0.2510 o          1 21       -0.555500
     73 H1           1.9730    -0.9720    -6.0820 ha         1 21        0.185000
     74 H2           3.9480     4.8490    -5.7190 h1         1 21        0.076700
     75 H3           2.6570     4.3210    -6.7970 h1         1 21        0.076700
     76 H4           0.2740     4.4460    -6.0920 ha         1 21        0.148000
     77 H5          -1.3610     5.6950    -4.7460 ha         1 21        0.148000
     78 H6           1.8000     6.9890    -2.1070 ha         1 21        0.148000
     79 H7           3.4350     5.7400    -3.4530 ha         1 21        0.148000
     80 H8          -1.6830     7.6360    -3.2240 h1         1 21        0.076700
     81 H9          -0.3930     8.1640    -2.1460 h1         1 21        0.076700
     82 H10         -4.8180     4.2140    -0.4920 ha         1 21        0.185000
     83 H11         -6.3350     3.1250     4.5580 h1         1 21        0.076700
     84 H12         -5.0440     3.6540     5.6360 h1         1 21        0.076700
     85 H13         -6.4290     0.7800     3.7330 ha         1 21        0.148000
     86 H14         -5.9240    -1.5630     4.2760 ha         1 21        0.148000
     87 H15         -2.7630    -0.2690     6.9150 ha         1 21        0.148000
     88 H16         -3.2680     2.0740     6.3720 ha         1 21        0.148000
     89 H17         -4.9920    -3.0960     6.0000 h1         1 21        0.076700
     90 H18         -3.7020    -2.5680     7.0780 h1         1 21        0.076700
     91 H19         -2.7180    -5.5200     1.7640 ha         1 21        0.185000
     92 H20          3.0330    -7.7110     1.5340 h1         1 21        0.076700
     93 H21          1.7420    -8.2390     0.4570 h1         1 21        0.076700
     94 H22          4.5750    -5.8730     0.8750 ha         1 21        0.148000
     95 H23          5.7040    -4.7780    -1.0140 ha         1 21        0.148000
     96 H24          2.5430    -6.0720    -3.6540 ha         1 21        0.148000
     97 H25          1.4140    -7.1670    -1.7640 ha         1 21        0.148000
     98 H26          4.7400    -5.3320    -4.5580 h1         1 21        0.076700
     99 H27          6.0300    -4.8040    -3.4810 h1         1 21        0.076700
    100 H28          5.6810     0.5460    -2.9870 ha         1 21        0.185000
    101 H29          0.9910    -4.0010     4.8610 ha         1 21        0.185000
    102 H30         -1.1090     5.7320     2.6040 ha         1 21        0.185000
@<TRIPOS>BOND
     1     1     2 2   
     2     2     3 1   
     3     2    51 1   
     4     3     4 ar  
     5     3    54 ar  
     6     4     5 ar  
     7     4    73 1   
     8     5     6 1   
     9     5    56 ar  
    10     6     7 2   
    11     6     8 1   
    12     8     9 1   
    13     8    57 1   
    14     9    10 1   
    15     9    74 1   
    16     9    75 1   
    17    10    11 ar  
    18    10    15 ar  
    19    11    12 ar  
    20    11    76 1   
    21    12    13 ar  
    22    12    77 1   
    23    13    14 ar  
    24    13    16 1   
    25    14    15 ar  
    26    14    78 1   
    27    15    79 1   
    28    16    17 1   
    29    16    80 1   
    30    16    81 1   
    31    17    18 1   
    32    17    71 1   
    33    18    19 2   
    34    18    20 1   
    35    20    21 ar  
    36    20    70 ar  
    37    21    22 ar  
    38    21    82 1   
    39    22    23 1   
    40    22    68 ar  
    41    23    24 2   
    42    23    25 1   
    43    25    26 1   
    44    25    66 1   
    45    26    27 1   
    46    26    83 1   
    47    26    84 1   
    48    27    28 ar  
    49    27    32 ar  
    50    28    29 ar  
    51    28    85 1   
    52    29    30 ar  
    53    29    86 1   
    54    30    31 ar  
    55    30    33 1   
    56    31    32 ar  
    57    31    87 1   
    58    32    88 1   
    59    33    34 1   
    60    33    89 1   
    61    33    90 1   
    62    34    35 1   
    63    34    64 1   
    64    35    36 2   
    65    35    37 1   
    66    37    38 ar  
    67    37    63 ar  
    68    38    39 ar  
    69    38    91 1   
    70    39    40 1   
    71    39    61 ar  
    72    40    41 2   
    73    40    42 1   
    74    42    43 1   
    75    42    59 1   
    76    43    44 1   
    77    43    92 1   
    78    43    93 1   
    79    44    45 ar  
    80    44    49 ar  
    81    45    46 ar  
    82    45    94 1   
    83    46    47 ar  
    84    46    95 1   
    85    47    48 ar  
    86    47    50 1   
    87    48    49 ar  
    88    48    96 1   
    89    49    97 1   
    90    50    51 1   
    91    50    98 1   
    92    50    99 1   
    93    51    52 1   
    94    52    53 2   
    95    52    54 1   
    96    54    55 ar  
    97    55    56 ar  
    98    55   100 1   
    99    56    57 1   
   100    57    58 2   
   101    59    60 2   
   102    59    61 1   
   103    61    62 ar  
   104    62    63 ar  
   105    62   101 1   
   106    63    64 1   
   107    64    65 2   
   108    66    67 2   
   109    66    68 1   
   110    68    69 ar  
   111    69    70 ar  
   112    69   102 1   
   113    70    71 1   
   114    71    72 2   
@<TRIPOS>SUBSTRUCTURE
     1 21          1 TEMP              0 ****  ****    0 ROOT
