@<TRIPOS>MOLECULE
URE
   84    86     1     0     0
SMALL
bcc


@<TRIPOS>ATOM
      1 O            5.8910     5.2230    -1.3720 oh         0 URE      -0.595600
      2 C            5.0110     5.4740    -0.3900 c          0 URE       0.609850
      3 O1           5.2260     6.3610     0.4020 o          0 URE      -0.544500
      4 C1           3.7550     4.6490    -0.2740 c3         0 URE       0.072950
      5 C2           4.0740     3.3150     0.4080 c3         0 URE      -0.042800
      6 S            4.8400     2.1850    -0.7880 ss         0 URE      -0.142100
      7 S1           5.7960     0.9100     0.5000 ss         0 URE      -0.142100
      8 C3           5.6360    -0.6470    -0.4230 c3         0 URE      -0.042800
      9 C4           6.4360    -1.7440     0.2900 c3         0 URE       0.072950
     10 N            6.0770    -3.0460    -0.3210 n          0 URE      -0.538150
     11 C5           4.9830    -3.6590     0.2070 c          0 URE       0.765600
     12 O2           4.4840    -3.2530     1.2380 o          0 URE      -0.625100
     13 N1           4.4580    -4.7350    -0.4410 n          0 URE      -0.455100
     14 C6           3.1570    -5.1090    -0.0400 ca         0 URE       0.044350
     15 C7           2.1820    -5.3830    -0.9810 ca         0 URE      -0.135125
     16 C8           0.8920    -5.6690    -0.5760 ca         0 URE      -0.135125
     17 C9           0.5860    -5.7310     0.7760 ca         0 URE       0.044350
     18 N2          -0.7350    -5.9150     1.1970 n          0 URE      -0.455100
     19 C10         -1.7460    -5.5220     0.4040 c          0 URE       0.765600
     20 O3          -1.5280    -5.2250    -0.7550 o          0 URE      -0.625100
     21 N3          -3.0090    -5.4570     0.8940 n          0 URE      -0.538150
     22 C11         -4.0190    -4.7980     0.0390 c3         0 URE       0.072950
     23 C12         -4.3550    -3.4370     0.6550 c3         0 URE      -0.042800
     24 S2          -5.1850    -2.3980    -0.5790 ss         0 URE      -0.142100
     25 S3          -6.0940    -1.0420     0.6610 ss         0 URE      -0.142100
     26 C13         -5.9330     0.4610    -0.3460 c3         0 URE      -0.042800
     27 C14         -6.6810     1.6130     0.3380 c3         0 URE       0.072950
     28 N4          -6.3320     2.8690    -0.3700 n          0 URE      -0.538150
     29 C15         -5.2340     3.5190     0.1010 c          0 URE       0.765600
     30 O4          -4.7290     3.1950     1.1590 o          0 URE      -0.625100
     31 N5          -4.7110     4.5390    -0.6330 n          0 URE      -0.455100
     32 C16         -3.4090     4.9440    -0.2670 ca         0 URE       0.044350
     33 C17         -2.4650     5.2320    -1.2350 ca         0 URE      -0.135125
     34 C18         -1.1700     5.5450    -0.8630 ca         0 URE      -0.135125
     35 C19         -0.8310     5.6250     0.4790 ca         0 URE       0.044350
     36 N6           0.4950     5.8330     0.8680 n          0 URE      -0.455100
     37 C20          1.4960     5.4090     0.0800 c          0 URE       0.765600
     38 O5           1.2640     5.0610    -1.0620 o          0 URE      -0.625100
     39 N7           2.7620     5.3650     0.5540 n          0 URE      -0.538150
     40 C21         -1.8100     5.4330     1.4500 ca         0 URE      -0.135125
     41 C22         -3.0940     5.0860     1.0800 ca         0 URE      -0.135125
     42 C23         -8.1670     1.3770     0.2530 c          0 URE       0.609850
     43 O6          -8.7620     0.5310     1.1100 oh         0 URE      -0.595600
     44 O7          -8.8230     1.9480    -0.5850 o          0 URE      -0.544500
     45 C24         -3.4610    -4.6040    -1.3480 c          0 URE       0.609850
     46 O8          -3.5350    -5.5990    -2.2460 oh         0 URE      -0.595600
     47 O9          -2.9470    -3.5530    -1.6510 o          0 URE      -0.544500
     48 C25          1.5910    -5.5510     1.7200 ca         0 URE      -0.135125
     49 C26          2.8730    -5.2320     1.3160 ca         0 URE      -0.135125
     50 C27          7.9110    -1.4910     0.1190 c          0 URE       0.609850
     51 O10          8.5320    -0.5880     0.8940 oh         0 URE      -0.595600
     52 O11          8.5360    -2.1020    -0.7150 o          0 URE      -0.544500
     53 H            6.6970     5.7530    -1.4460 ho         0 URE       0.450000
     54 H1           3.3440     4.4650    -1.2670 h1         0 URE       0.131700
     55 H2           4.7610     3.4860     1.2360 h1         0 URE       0.102950
     56 H3           3.1530     2.8720     0.7870 h1         0 URE       0.102950
     57 H4           4.5860    -0.9350    -0.4710 h1         0 URE       0.102950
     58 H5           6.0230    -0.5130    -1.4330 h1         0 URE       0.102950
     59 H6           6.1840    -1.7540     1.3510 h1         0 URE       0.131700
     60 H7           6.5870    -3.4350    -1.0490 hn         0 URE       0.309250
     61 H8           4.9440    -5.2120    -1.1310 hn         0 URE       0.317000
     62 H9           2.4290    -5.3750    -2.0320 ha         0 URE       0.153000
     63 H10          0.1220    -5.8420    -1.3120 ha         0 URE       0.153000
     64 H11         -0.9210    -6.3230     2.0570 hn         0 URE       0.317000
     65 H12         -3.2390    -5.8250     1.7620 hn         0 URE       0.309250
     66 H13         -4.9180    -5.4120    -0.0090 h1         0 URE       0.131700
     67 H14         -5.0130    -3.5790     1.5120 h1         0 URE       0.102950
     68 H15         -3.4360    -2.9490     0.9810 h1         0 URE       0.102950
     69 H16         -4.8790     0.7210    -0.4460 h1         0 URE       0.102950
     70 H17         -6.3600     0.2850    -1.3330 h1         0 URE       0.102950
     71 H18         -6.3770     1.6820     1.3820 h1         0 URE       0.131700
     72 H19         -6.8510     3.2030    -1.1180 hn         0 URE       0.309250
     73 H20         -5.1990     4.9590    -1.3590 hn         0 URE       0.317000
     74 H21         -2.7380     5.2120    -2.2790 ha         0 URE       0.153000
     75 H22         -0.4220     5.7280    -1.6200 ha         0 URE       0.153000
     76 H23          0.6920     6.2840     1.7040 hn         0 URE       0.317000
     77 H24          3.0070     5.7830     1.3940 hn         0 URE       0.309250
     78 H25         -1.5650     5.5560     2.4950 ha         0 URE       0.153000
     79 H26         -3.8510     4.9250     1.8330 ha         0 URE       0.153000
     80 H27         -9.7150     0.3800     1.0560 ho         0 URE       0.450000
     81 H28         -3.1770    -5.4740    -3.1360 ho         0 URE       0.450000
     82 H29          1.3690    -5.6600     2.7710 ha         0 URE       0.153000
     83 H30          3.6510    -5.0800     2.0490 ha         0 URE       0.153000
     84 H31          9.4790    -0.4250     0.7840 ho         0 URE       0.450000
@<TRIPOS>BOND
     1     1     2 1   
     2     1    53 1   
     3     2     3 2   
     4     2     4 1   
     5     4     5 1   
     6     4    39 1   
     7     4    54 1   
     8     5     6 1   
     9     5    55 1   
    10     5    56 1   
    11     6     7 1   
    12     7     8 1   
    13     8     9 1   
    14     8    57 1   
    15     8    58 1   
    16     9    10 1   
    17     9    50 1   
    18     9    59 1   
    19    10    11 1   
    20    10    60 1   
    21    11    12 2   
    22    11    13 1   
    23    13    14 1   
    24    13    61 1   
    25    14    15 ar  
    26    14    49 ar  
    27    15    16 ar  
    28    15    62 1   
    29    16    17 ar  
    30    16    63 1   
    31    17    18 1   
    32    17    48 ar  
    33    18    19 1   
    34    18    64 1   
    35    19    20 2   
    36    19    21 1   
    37    21    22 1   
    38    21    65 1   
    39    22    23 1   
    40    22    45 1   
    41    22    66 1   
    42    23    24 1   
    43    23    67 1   
    44    23    68 1   
    45    24    25 1   
    46    25    26 1   
    47    26    27 1   
    48    26    69 1   
    49    26    70 1   
    50    27    28 1   
    51    27    42 1   
    52    27    71 1   
    53    28    29 1   
    54    28    72 1   
    55    29    30 2   
    56    29    31 1   
    57    31    32 1   
    58    31    73 1   
    59    32    33 ar  
    60    32    41 ar  
    61    33    34 ar  
    62    33    74 1   
    63    34    35 ar  
    64    34    75 1   
    65    35    36 1   
    66    35    40 ar  
    67    36    37 1   
    68    36    76 1   
    69    37    38 2   
    70    37    39 1   
    71    39    77 1   
    72    40    41 ar  
    73    40    78 1   
    74    41    79 1   
    75    42    43 1   
    76    42    44 2   
    77    43    80 1   
    78    45    46 1   
    79    45    47 2   
    80    46    81 1   
    81    48    49 ar  
    82    48    82 1   
    83    49    83 1   
    84    50    51 1   
    85    50    52 2   
    86    51    84 1   
@<TRIPOS>SUBSTRUCTURE
     1 URE         1 TEMP              0 ****  ****    0 ROOT
