@<TRIPOS>MOLECULE
M
  213   219     1     0     0
SMALL
bcc


@<TRIPOS>ATOM
      1 O1          -7.9060     1.1490    -2.2530 o          1 M        -0.515667
      2 C1          -7.8180     1.1250    -1.0340 c          1 M         0.614600
      3 O2          -8.9360     1.0130    -0.2800 oh         1 M        -0.579933
      4 C2          -6.5210     1.1420    -0.2250 c3         1 M         0.055533
      5 C3          -5.6810    -0.0620    -0.6700 c3         1 M        -0.061633
      6 S1          -4.0080    -0.0300     0.0680 ss         1 M        -0.128267
      7 S2          -3.0920    -1.6400    -0.8240 ss         1 M        -0.145767
      8 C4          -2.6430    -1.0410    -2.4970 c3         1 M        -0.050300
      9 C5          -1.5690     0.0500    -2.5890 c3         1 M         0.062533
     10 C6          -0.2280    -0.4130    -1.9970 c          1 M         0.622767
     11 O3           0.2690     0.0070    -0.9560 o          1 M        -0.533667
     12 O4           0.4210    -1.3330    -2.7580 oh         1 M        -0.600433
     13 N1          -2.0060     1.3400    -2.0340 n          1 M        -0.541567
     14 C7          -2.8510     2.2800    -2.5820 c          1 M         0.585600
     15 O5          -3.4010     3.1050    -1.8530 o          1 M        -0.614433
     16 C8          -3.0870     2.3560    -4.0550 ca         1 M         0.350467
     17 C9          -4.2440     2.9520    -4.5430 ca         1 M        -0.164800
     18 C10         -4.4090     3.0550    -5.9240 ca         1 M        -0.105333
     19 C11         -3.4190     2.5630    -6.7720 ca         1 M        -0.164800
     20 C12         -2.2890     2.0040    -6.1950 ca         1 M         0.350467
     21 N2          -2.1000     1.9000    -4.8570 nb         1 M        -0.639333
     22 C13         -1.2190     1.3760    -7.0310 c          1 M         0.585600
     23 O6          -1.4000     1.1250    -8.2160 o          1 M        -0.614433
     24 N3          -0.0670     1.0440    -6.3400 n          1 M        -0.541567
     25 C14          0.8150    -0.0080    -6.8330 c3         1 M         0.062533
     26 C15          0.2240    -1.3470    -6.3810 c          1 M         0.622767
     27 O7          -0.2790    -1.5830    -5.2850 o          1 M        -0.533667
     28 O8           0.3780    -2.3190    -7.3010 oh         1 M        -0.600433
     29 C16          2.2210     0.0260    -6.2340 c3         1 M        -0.050300
     30 S3           3.1780     1.5250    -6.6190 ss         1 M        -0.145767
     31 S4           4.7760     1.3430    -5.3270 ss         1 M        -0.128267
     32 C17          6.0990     0.5730    -6.3380 c3         1 M        -0.061633
     33 C18          6.3760    -0.8910    -5.9590 c3         1 M         0.055533
     34 C19          7.7280    -1.2910    -6.5660 c          1 M         0.614600
     35 O9           8.7640    -0.6650    -6.4020 o          1 M        -0.515667
     36 O10          7.6760    -2.4240    -7.3070 oh         1 M        -0.579933
     37 N4           5.3270    -1.8110    -6.4540 n          1 M        -0.568567
     38 C20          4.5690    -2.7100    -5.7470 c          1 M         0.680367
     39 O11          3.5670    -3.1970    -6.2600 o          1 M        -0.581267
     40 C21          4.9140    -3.0720    -4.3630 ca         1 M        -0.151600
     41 C22          3.9360    -2.9030    -3.3860 ca         1 M        -0.036833
     42 C23          4.2200    -3.2780    -2.0730 ca         1 M        -0.151600
     43 C24          5.4570    -3.8300    -1.7230 ca         1 M        -0.036833
     44 C25          6.4210    -4.0350    -2.7130 ca         1 M        -0.151600
     45 C26          6.1470    -3.6470    -4.0380 ca         1 M        -0.036833
     46 C27          7.7670    -4.5980    -2.4230 c          1 M         0.680367
     47 O12          8.6640    -4.4320    -3.2430 o          1 M        -0.581267
     48 N5           7.9690    -5.3140    -1.2550 n          1 M        -0.568567
     49 C28          9.3440    -5.6990    -0.8550 c3         1 M         0.055533
     50 C29          9.7590    -7.0990    -1.3240 c          1 M         0.614600
     51 O13         10.8350    -7.6190    -1.0650 o          1 M        -0.515667
     52 O14          8.8210    -7.7190    -2.0800 oh         1 M        -0.579933
     53 C30          9.6230    -5.4800     0.6400 c3         1 M        -0.061633
     54 S5           9.1280    -6.7810     1.8340 ss         1 M        -0.128267
     55 S6           7.1080    -7.0010     1.6010 ss         1 M        -0.145767
     56 C31          6.4430    -5.6130     2.5960 c3         1 M        -0.050300
     57 C32          4.9250    -5.7130     2.8280 c3         1 M         0.062533
     58 C33          4.1390    -5.5020     1.5280 c          1 M         0.622767
     59 O15          4.4840    -5.8810     0.4180 o          1 M        -0.533667
     60 O16          2.9470    -4.8910     1.7050 oh         1 M        -0.600433
     61 N6           4.4240    -4.8230     3.8920 n          1 M        -0.541567
     62 C34          4.7960    -3.5000     4.0200 c          1 M         0.585600
     63 O17          5.7370    -2.9910     3.4160 o          1 M        -0.614433
     64 C35          3.9430    -2.6870     4.9480 ca         1 M         0.350467
     65 C36          4.4130    -1.4540     5.3920 ca         1 M        -0.164800
     66 C37          3.5980    -0.6930     6.2230 ca         1 M        -0.105333
     67 C38          2.3400    -1.1760     6.5600 ca         1 M        -0.164800
     68 C39          1.9520    -2.4160     6.0610 ca         1 M         0.350467
     69 N7           2.7290    -3.2120     5.2750 nb         1 M        -0.639333
     70 C40          0.5590    -2.8970     6.3180 c          1 M         0.585600
     71 O18         -0.2510    -2.2480     6.9690 o          1 M        -0.614433
     72 N8           0.2290    -4.1140     5.7640 n          1 M        -0.541567
     73 C41         -1.1490    -4.4700     5.3580 c3         1 M         0.062533
     74 C42         -2.2040    -4.6500     6.4740 c          1 M         0.622767
     75 O19         -3.1990    -5.3550     6.3470 o          1 M        -0.533667
     76 O20         -2.0530    -3.9120     7.5960 oh         1 M        -0.600433
     77 C43         -1.6620    -3.5040     4.2740 c3         1 M        -0.050300
     78 S7          -3.0080    -4.2070     3.2560 ss         1 M        -0.145767
     79 S8          -4.2870    -2.6170     3.0100 ss         1 M        -0.128267
     80 C44         -5.5310    -2.8580     4.3290 c3         1 M        -0.061633
     81 C45         -5.5470    -1.7110     5.3470 c3         1 M         0.055533
     82 C46         -4.5440    -2.0170     6.4530 c          1 M         0.614600
     83 O21         -3.3640    -1.7050     6.4360 o          1 M        -0.515667
     84 O22         -5.0410    -2.8010     7.4330 oh         1 M        -0.579933
     85 N9          -6.8990    -1.5810     5.9280 n          1 M        -0.568567
     86 C47         -7.5430    -0.4130     6.2530 c          1 M         0.680367
     87 O23         -8.3710    -0.4000     7.1580 o          1 M        -0.581267
     88 C48         -7.2570     0.8410     5.5140 ca         1 M        -0.151600
     89 C49         -7.0870     0.8540     4.1210 ca         1 M        -0.036833
     90 C50         -6.8040     2.0590     3.4710 ca         1 M        -0.151600
     91 C51         -6.7300     3.2450     4.2110 ca         1 M        -0.036833
     92 C52         -6.8850     3.2290     5.5980 ca         1 M        -0.151600
     93 C53         -7.1810     2.0320     6.2500 ca         1 M        -0.036833
     94 C54         -6.7610     4.4840     6.3730 c          1 M         0.680367
     95 O24         -7.4970     4.7110     7.3250 o          1 M        -0.581267
     96 N10         -5.8030     5.4100     6.0330 n          1 M        -0.568567
     97 C55         -4.4560     5.1330     5.4700 c3         1 M         0.055533
     98 C56         -3.3990     5.3800     6.5640 c          1 M         0.614600
     99 O25         -2.2020     5.5120     6.3600 o          1 M        -0.515667
    100 O26         -3.9020     5.3740     7.8250 oh         1 M        -0.579933
    101 C57         -4.1990     6.0070     4.2340 c3         1 M        -0.061633
    102 S9          -2.9270     5.2770     3.1370 ss         1 M        -0.128267
    103 S10         -3.0270     6.4770     1.4710 ss         1 M        -0.145767
    104 C58         -4.2560     5.6090     0.4150 c3         1 M        -0.050300
    105 C59         -4.2200     6.1640    -1.0160 c3         1 M         0.062533
    106 C60         -5.4400     5.6600    -1.8130 c          1 M         0.622767
    107 O27         -6.3690     5.0080    -1.3580 o          1 M        -0.533667
    108 O28         -5.4630     6.1020    -3.1000 oh         1 M        -0.600433
    109 N11         -2.9680     5.8130    -1.7080 n          1 M        -0.541567
    110 C61         -2.5090     6.4690    -2.8260 c          1 M         0.585600
    111 O29         -3.1210     7.4230    -3.3000 o          1 M        -0.614433
    112 C62         -1.3200     5.8610    -3.5080 ca         1 M         0.350467
    113 C63         -0.8950     6.3660    -4.7320 ca         1 M        -0.164800
    114 C64          0.1280     5.7010    -5.4040 ca         1 M        -0.105333
    115 C65          0.6830     4.5560    -4.8410 ca         1 M        -0.164800
    116 C66          0.2130     4.1420    -3.6020 ca         1 M         0.350467
    117 N12         -0.7740     4.7710    -2.9120 nb         1 M        -0.639333
    118 C67          0.7100     2.8620    -3.0220 c          1 M         0.585600
    119 O30          0.8000     1.8630    -3.7370 o          1 M        -0.614433
    120 N13          1.0290     2.7970    -1.6870 n          1 M        -0.541567
    121 C68          1.1430     3.9090    -0.7290 c3         1 M         0.062533
    122 C69         -0.0970     3.9550     0.1610 c          1 M         0.622767
    123 O31         -0.9600     3.0980     0.2630 o          1 M        -0.533667
    124 O32         -0.1470     5.0870     0.8930 oh         1 M        -0.600433
    125 C70          2.3790     3.7720     0.1750 c3         1 M        -0.050300
    126 S11          3.9080     3.5630    -0.8220 ss         1 M        -0.145767
    127 S12          4.7560     1.8650    -0.0250 ss         1 M        -0.128267
    128 C71          3.5360     0.5850    -0.4830 c3         1 M        -0.061633
    129 C72          4.0660    -0.8380    -0.3340 c3         1 M         0.055533
    130 C73          4.5160    -1.1320     1.0950 c          1 M         0.614600
    131 O33          3.8440    -0.9840     2.1050 o          1 M        -0.515667
    132 O34          5.7250    -1.7370     1.1370 oh         1 M        -0.579933
    133 N14          2.9870    -1.8070    -0.5870 n          1 M        -0.568567
    134 C74          3.1720    -3.0750    -1.0620 c          1 M         0.680367
    135 O35          2.4710    -4.0100    -0.6910 o          1 M        -0.581267
    136 C75         -6.4550     2.1510     2.0300 c          1 M         0.680367
    137 O36         -5.8510     3.1420     1.6360 o          1 M        -0.581267
    138 N15         -6.8100     1.1020     1.2190 n          1 M        -0.568567
    139 H1          -9.6650     1.0740    -0.9360 ho         1 M         0.450667
    140 H2          -6.0150     2.0810    -0.4770 h1         1 M         0.115533
    141 H3          -5.5750    -0.0580    -1.7600 h1         1 M         0.102117
    142 H4          -6.1730    -0.9970    -0.3780 h1         1 M         0.102117
    143 H5          -3.5600    -0.7170    -3.0010 h1         1 M         0.104700
    144 H6          -2.2940    -1.9280    -3.0390 h1         1 M         0.104700
    145 H7          -1.3620     0.2030    -3.6450 h1         1 M         0.112700
    146 H8          -0.0010    -1.5080    -3.6350 ho         1 M         0.469500
    147 H9          -1.8930     1.4550    -1.0250 hn         1 M         0.351000
    148 H10         -5.0080     3.3280    -3.8670 ha         1 M         0.177500
    149 H11         -5.3100     3.5080    -6.3320 ha         1 M         0.159667
    150 H12         -3.5310     2.6070    -7.8510 ha         1 M         0.177500
    151 H13         -0.0670     1.2380    -5.3340 hn         1 M         0.351000
    152 H14          0.8380     0.0250    -7.9280 h1         1 M         0.112700
    153 H15          0.0460    -3.1510    -6.9030 ho         1 M         0.469500
    154 H16          2.1670    -0.0850    -5.1440 h1         1 M         0.104700
    155 H17          2.7820    -0.8190    -6.6310 h1         1 M         0.104700
    156 H18          6.9920     1.1810    -6.1570 h1         1 M         0.102117
    157 H19          5.8690     0.6700    -7.4050 h1         1 M         0.102117
    158 H20          6.4750    -0.9970    -4.8750 h1         1 M         0.115533
    159 H21          6.7720    -2.8020    -7.3100 ho         1 M         0.450667
    160 H22          4.9190    -1.5920    -7.3610 hn         1 M         0.336333
    161 H23          2.9610    -2.4910    -3.6380 ha         1 M         0.168167
    162 H24          5.6570    -4.0630    -0.6840 ha         1 M         0.168167
    163 H25          6.8940    -3.8140    -4.8130 ha         1 M         0.168167
    164 H26          7.2000    -5.5670    -0.6400 hn         1 M         0.336333
    165 H27         10.0160    -5.0180    -1.3940 h1         1 M         0.115533
    166 H28          8.0630    -7.1210    -2.2310 ho         1 M         0.450667
    167 H29         10.7070    -5.3840     0.7720 h1         1 M         0.102117
    168 H30          9.1890    -4.5300     0.9730 h1         1 M         0.102117
    169 H31          6.6950    -4.6980     2.0500 h1         1 M         0.104700
    170 H32          6.9580    -5.6030     3.5620 h1         1 M         0.104700
    171 H33          4.6710    -6.7210     3.1790 h1         1 M         0.112700
    172 H34          2.5810    -4.7660     0.7860 ho         1 M         0.469500
    173 H35          3.4920    -5.0240     4.2450 hn         1 M         0.351000
    174 H36          5.3880    -1.0850     5.0890 ha         1 M         0.177500
    175 H37          3.9300     0.2790     6.5810 ha         1 M         0.159667
    176 H38          1.6680    -0.5840     7.1760 ha         1 M         0.177500
    177 H39          0.9670    -4.4920     5.1750 hn         1 M         0.351000
    178 H40         -1.0180    -5.4710     4.9250 h1         1 M         0.112700
    179 H41         -1.3620    -3.2100     7.4910 ho         1 M         0.469500
    180 H42         -1.9650    -2.5540     4.7160 h1         1 M         0.104700
    181 H43         -0.8480    -3.2740     3.5760 h1         1 M         0.104700
    182 H44         -5.4030    -3.8310     4.8150 h1         1 M         0.102117
    183 H45         -6.4960    -2.8950     3.8090 h1         1 M         0.102117
    184 H46         -5.2480    -0.7570     4.9090 h1         1 M         0.115533
    185 H47         -4.2520    -3.1040     7.9430 ho         1 M         0.450667
    186 H48         -7.1280    -2.3120     6.6000 hn         1 M         0.336333
    187 H49         -7.1490    -0.0760     3.5650 ha         1 M         0.168167
    188 H50         -6.5440     4.1830     3.6930 ha         1 M         0.168167
    189 H51         -7.3410     2.0200     7.3280 ha         1 M         0.168167
    190 H52         -5.9210     6.2980     6.5180 hn         1 M         0.336333
    191 H53         -4.3940     4.0670     5.2330 h1         1 M         0.115533
    192 H54         -4.8580     5.1620     7.8630 ho         1 M         0.450667
    193 H55         -5.1230     6.1040     3.6520 h1         1 M         0.102117
    194 H56         -3.8780     7.0120     4.5290 h1         1 M         0.102117
    195 H57         -5.2430     5.7550     0.8650 h1         1 M         0.104700
    196 H58         -4.0220     4.5400     0.4070 h1         1 M         0.104700
    197 H59         -4.3100     7.2590    -0.9930 h1         1 M         0.112700
    198 H60         -4.7250     6.7310    -3.2880 ho         1 M         0.469500
    199 H61         -2.6390     4.8490    -1.5880 hn         1 M         0.351000
    200 H62         -1.3670     7.2410    -5.1690 ha         1 M         0.177500
    201 H63          0.4740     6.0590    -6.3710 ha         1 M         0.159667
    202 H64          1.4570     3.9980    -5.3590 ha         1 M         0.177500
    203 H65          1.0380     1.8520    -1.3090 hn         1 M         0.351000
    204 H66          1.2010     4.8510    -1.2820 h1         1 M         0.112700
    205 H67         -0.9940     5.0450     1.3960 ho         1 M         0.469500
    206 H68          2.5030     4.6710     0.7880 h1         1 M         0.104700
    207 H69          2.2530     2.9310     0.8660 h1         1 M         0.104700
    208 H70          2.6570     0.7220     0.1550 h1         1 M         0.102117
    209 H71          3.2280     0.7360    -1.5230 h1         1 M         0.102117
    210 H72          4.9000    -1.0020    -1.0230 h1         1 M         0.115533
    211 H73          5.8450    -2.0200     2.0820 ho         1 M         0.450667
    212 H74          2.1890    -1.7380     0.0430 hn         1 M         0.336333
    213 H75         -7.5900     0.5180     1.4940 hn         1 M         0.336333
@<TRIPOS>BOND
     1     1     2 2   
     2     2     3 1   
     3     2     4 1   
     4     3   139 1   
     5     4     5 1   
     6     4   138 1   
     7     4   140 1   
     8     5     6 1   
     9     5   141 1   
    10     5   142 1   
    11     6     7 1   
    12     7     8 1   
    13     8     9 1   
    14     8   143 1   
    15     8   144 1   
    16     9    10 1   
    17     9    13 1   
    18     9   145 1   
    19    10    11 2   
    20    10    12 1   
    21    12   146 1   
    22    13    14 1   
    23    13   147 1   
    24    14    15 2   
    25    14    16 1   
    26    16    17 ar  
    27    16    21 ar  
    28    17    18 ar  
    29    17   148 1   
    30    18    19 ar  
    31    18   149 1   
    32    19    20 ar  
    33    19   150 1   
    34    20    21 ar  
    35    20    22 1   
    36    22    23 2   
    37    22    24 1   
    38    24    25 1   
    39    24   151 1   
    40    25    26 1   
    41    25    29 1   
    42    25   152 1   
    43    26    27 2   
    44    26    28 1   
    45    28   153 1   
    46    29    30 1   
    47    29   154 1   
    48    29   155 1   
    49    30    31 1   
    50    31    32 1   
    51    32    33 1   
    52    32   156 1   
    53    32   157 1   
    54    33    34 1   
    55    33    37 1   
    56    33   158 1   
    57    34    35 2   
    58    34    36 1   
    59    36   159 1   
    60    37    38 1   
    61    37   160 1   
    62    38    39 2   
    63    38    40 1   
    64    40    41 ar  
    65    40    45 ar  
    66    41    42 ar  
    67    41   161 1   
    68    42    43 ar  
    69    42   134 1   
    70    43    44 ar  
    71    43   162 1   
    72    44    45 ar  
    73    44    46 1   
    74    45   163 1   
    75    46    47 2   
    76    46    48 1   
    77    48    49 1   
    78    48   164 1   
    79    49    50 1   
    80    49    53 1   
    81    49   165 1   
    82    50    51 2   
    83    50    52 1   
    84    52   166 1   
    85    53    54 1   
    86    53   167 1   
    87    53   168 1   
    88    54    55 1   
    89    55    56 1   
    90    56    57 1   
    91    56   169 1   
    92    56   170 1   
    93    57    58 1   
    94    57    61 1   
    95    57   171 1   
    96    58    59 2   
    97    58    60 1   
    98    60   172 1   
    99    61    62 1   
   100    61   173 1   
   101    62    63 2   
   102    62    64 1   
   103    64    65 ar  
   104    64    69 ar  
   105    65    66 ar  
   106    65   174 1   
   107    66    67 ar  
   108    66   175 1   
   109    67    68 ar  
   110    67   176 1   
   111    68    69 ar  
   112    68    70 1   
   113    70    71 2   
   114    70    72 1   
   115    72    73 1   
   116    72   177 1   
   117    73    74 1   
   118    73    77 1   
   119    73   178 1   
   120    74    75 2   
   121    74    76 1   
   122    76   179 1   
   123    77    78 1   
   124    77   180 1   
   125    77   181 1   
   126    78    79 1   
   127    79    80 1   
   128    80    81 1   
   129    80   182 1   
   130    80   183 1   
   131    81    82 1   
   132    81    85 1   
   133    81   184 1   
   134    82    83 2   
   135    82    84 1   
   136    84   185 1   
   137    85    86 1   
   138    85   186 1   
   139    86    87 2   
   140    86    88 1   
   141    88    89 ar  
   142    88    93 ar  
   143    89    90 ar  
   144    89   187 1   
   145    90    91 ar  
   146    90   136 1   
   147    91    92 ar  
   148    91   188 1   
   149    92    93 ar  
   150    92    94 1   
   151    93   189 1   
   152    94    95 2   
   153    94    96 1   
   154    96    97 1   
   155    96   190 1   
   156    97    98 1   
   157    97   101 1   
   158    97   191 1   
   159    98    99 2   
   160    98   100 1   
   161   100   192 1   
   162   101   102 1   
   163   101   193 1   
   164   101   194 1   
   165   102   103 1   
   166   103   104 1   
   167   104   105 1   
   168   104   195 1   
   169   104   196 1   
   170   105   106 1   
   171   105   109 1   
   172   105   197 1   
   173   106   107 2   
   174   106   108 1   
   175   108   198 1   
   176   109   110 1   
   177   109   199 1   
   178   110   111 2   
   179   110   112 1   
   180   112   113 ar  
   181   112   117 ar  
   182   113   114 ar  
   183   113   200 1   
   184   114   115 ar  
   185   114   201 1   
   186   115   116 ar  
   187   115   202 1   
   188   116   117 ar  
   189   116   118 1   
   190   118   119 2   
   191   118   120 1   
   192   120   121 1   
   193   120   203 1   
   194   121   122 1   
   195   121   125 1   
   196   121   204 1   
   197   122   123 2   
   198   122   124 1   
   199   124   205 1   
   200   125   126 1   
   201   125   206 1   
   202   125   207 1   
   203   126   127 1   
   204   127   128 1   
   205   128   129 1   
   206   128   208 1   
   207   128   209 1   
   208   129   130 1   
   209   129   133 1   
   210   129   210 1   
   211   130   131 2   
   212   130   132 1   
   213   132   211 1   
   214   133   134 1   
   215   133   212 1   
   216   134   135 2   
   217   136   137 2   
   218   136   138 1   
   219   138   213 1   
@<TRIPOS>SUBSTRUCTURE
     1 M           1 TEMP              0 ****  ****    0 ROOT
