@<TRIPOS>MOLECULE
ASB
   98   102     1     0     0
SMALL
bcc


@<TRIPOS>ATOM
      1 C            9.1010     0.1680    -0.2050 c3         0 ASB      -0.060000
      2 C1           7.5980     0.1150    -0.1190 ca         0 ASB      -0.494000
      3 C2           6.8690     1.2890    -0.0580 ca         0 ASB       0.347000
      4 O            7.5100     2.4830    -0.0690 o          0 ASB      -0.558000
      5 C3           5.4620     1.2480     0.0150 ca         0 ASB      -0.397000
      6 C4           4.8080     0.0190     0.0250 ca         0 ASB       0.023000
      7 C5           5.5450    -1.1610    -0.0300 ca         0 ASB      -0.397000
      8 C6           6.9500    -1.1060    -0.1050 ca         0 ASB       0.347000
      9 O1           7.6690    -2.2540    -0.1550 o          0 ASB      -0.558000
     10 C7           4.8760    -2.4700    -0.0170 c2         0 ASB       0.411000
     11 O2           5.5430    -3.4870    -0.0400 o          0 ASB      -0.446000
     12 N            3.5180    -2.5530     0.0210 n          0 ASB      -0.417000
     13 C8           2.9800    -3.9310     0.0420 c3         0 ASB       0.019000
     14 C9           1.4760    -3.8850     0.0250 ca         0 ASB      -0.084000
     15 C10          0.8000    -3.7310    -1.1710 ca         0 ASB      -0.071000
     16 C11          1.5700    -3.5710    -2.4560 c3         0 ASB      -0.181000
     17 C12         -0.5810    -3.7260    -1.1880 ca         0 ASB      -0.071000
     18 C13         -1.3180    -3.5650    -2.4920 c3         0 ASB      -0.181000
     19 C14         -1.2890    -3.8680    -0.0080 ca         0 ASB      -0.084000
     20 C15         -2.7890    -3.9240    -0.0300 c3         0 ASB       0.019000
     21 N1          -3.3640    -2.5650    -0.0210 n          0 ASB      -0.417000
     22 C16         -4.7180    -2.5090    -0.0430 c2         0 ASB       0.411000
     23 O3          -5.3440    -3.5520    -0.0580 o          0 ASB      -0.446000
     24 C17         -5.4610    -1.2450    -0.0480 ca         0 ASB      -0.397000
     25 C18         -6.8710    -1.2840    -0.0550 ca         0 ASB       0.347000
     26 O4          -7.5120    -2.4780    -0.0610 o          0 ASB      -0.558000
     27 C19         -7.6020    -0.1110    -0.0560 ca         0 ASB      -0.494000
     28 C20         -9.1080    -0.1610    -0.0580 c3         0 ASB      -0.060000
     29 C21         -6.9500     1.1100    -0.0550 ca         0 ASB       0.347000
     30 O5          -7.6690     2.2580    -0.0580 o          0 ASB      -0.558000
     31 C22         -5.5430     1.1630    -0.0510 ca         0 ASB      -0.397000
     32 C23         -4.8060    -0.0170    -0.0470 ca         0 ASB       0.023000
     33 C24         -4.8760     2.4720    -0.0530 c2         0 ASB       0.411000
     34 O6          -5.5470     3.4860    -0.0650 o          0 ASB      -0.446000
     35 N2          -3.5220     2.5680    -0.0410 n          0 ASB      -0.417000
     36 C25         -2.9730     3.9380    -0.0520 c3         0 ASB       0.019000
     37 C26         -1.4720     3.8860     0.0230 ca         0 ASB      -0.084000
     38 C27         -0.7210     3.9080    -1.1380 ca         0 ASB      -0.071000
     39 C28         -1.4080     3.9450    -2.4790 c3         0 ASB      -0.181000
     40 C29          0.6590     3.8980    -1.0690 ca         0 ASB      -0.071000
     41 C30          1.4770     3.9290    -2.3340 c3         0 ASB      -0.181000
     42 C31          1.2900     3.8600     0.1610 ca         0 ASB      -0.084000
     43 C32          2.7890     3.9080     0.2410 c3         0 ASB       0.019000
     44 N3           3.3580     2.5480     0.1280 n          0 ASB      -0.417000
     45 C33          4.7180     2.5100     0.0850 c2         0 ASB       0.411000
     46 O7           5.3360     3.5570     0.1050 o          0 ASB      -0.446000
     47 C34          0.5380     3.7980     1.3200 ca         0 ASB      -0.071000
     48 C35          1.2240     3.7160     2.6590 c3         0 ASB      -0.181000
     49 C36         -0.8420     3.8130     1.2510 ca         0 ASB      -0.071000
     50 C37         -1.6600     3.7510     2.5150 c3         0 ASB      -0.181000
     51 C38         -0.6110    -3.9820     1.1930 ca         0 ASB      -0.071000
     52 C39         -1.3810    -4.0950     2.4840 c3         0 ASB      -0.181000
     53 C40          0.7700    -3.9920     1.2090 ca         0 ASB      -0.071000
     54 C41          1.5070    -4.1220     2.5170 c3         0 ASB      -0.181000
     55 H            9.5240     0.1640     0.8000 hc         0 ASB       0.012167
     56 H1           9.4640    -0.7010    -0.7550 hc         0 ASB       0.012167
     57 H2           9.4040     1.0770    -0.7240 hc         0 ASB       0.012167
     58 H3           3.7300    -0.0190     0.0750 ha         0 ASB       0.062000
     59 H4           2.9460    -1.7700     0.0340 hn         0 ASB       0.211000
     60 H5           3.3370    -4.4740    -0.8330 h1         0 ASB       0.074500
     61 H6           3.3180    -4.4390     0.9460 h1         0 ASB       0.074500
     62 H7           1.7530    -4.5520    -2.8950 hc         0 ASB       0.080833
     63 H8           0.9920    -2.9630    -3.1520 hc         0 ASB       0.080833
     64 H9           2.5220    -3.0820    -2.2510 hc         0 ASB       0.080833
     65 H10         -1.4980    -4.5470    -2.9310 hc         0 ASB       0.080833
     66 H11         -2.2710    -3.0670    -2.3130 hc         0 ASB       0.080833
     67 H12         -0.7180    -2.9660    -3.1770 hc         0 ASB       0.080833
     68 H13         -3.1160    -4.4450    -0.9290 h1         0 ASB       0.074500
     69 H14         -3.1410    -4.4670     0.8470 h1         0 ASB       0.074500
     70 H15         -2.8120    -1.7680    -0.0020 hn         0 ASB       0.211000
     71 H16         -9.4720    -0.1730     0.9690 hc         0 ASB       0.012167
     72 H17         -9.5000     0.7160    -0.5720 hc         0 ASB       0.012167
     73 H18         -9.4410    -1.0630    -0.5720 hc         0 ASB       0.012167
     74 H19         -3.7260     0.0200    -0.0420 ha         0 ASB       0.062000
     75 H20         -2.9500     1.7850    -0.0270 hn         0 ASB       0.211000
     76 H21         -3.2730     4.4410    -0.9710 h1         0 ASB       0.074500
     77 H22         -3.3600     4.4890     0.8050 h1         0 ASB       0.074500
     78 H23         -1.5670     4.9810    -2.7780 hc         0 ASB       0.080833
     79 H24         -0.7850     3.4440    -3.2200 hc         0 ASB       0.080833
     80 H25         -2.3690     3.4350    -2.4090 hc         0 ASB       0.080833
     81 H26          1.6800     4.9630    -2.6100 hc         0 ASB       0.080833
     82 H27          2.4180     3.4040    -2.1710 hc         0 ASB       0.080833
     83 H28          0.9230     3.4410    -3.1370 hc         0 ASB       0.080833
     84 H29          3.1730     4.5270    -0.5700 h1         0 ASB       0.074500
     85 H30          3.0850     4.3440     1.1960 h1         0 ASB       0.074500
     86 H31          2.8080     1.7500     0.0840 hn         0 ASB       0.211000
     87 H32          1.3980     4.7220     3.0420 hc         0 ASB       0.080833
     88 H33          0.5940     3.1650     3.3570 hc         0 ASB       0.080833
     89 H34          2.1780     3.2000     2.5470 hc         0 ASB       0.080833
     90 H35         -1.8490     4.7620     2.8760 hc         0 ASB       0.080833
     91 H36         -2.6090     3.2550     2.3100 hc         0 ASB       0.080833
     92 H37         -1.1140     3.1910     3.2740 hc         0 ASB       0.080833
     93 H38         -1.5730    -5.1450     2.7020 hc         0 ASB       0.080833
     94 H39         -0.7980    -3.6560     3.2940 hc         0 ASB       0.080833
     95 H40         -2.3280    -3.5640     2.3900 hc         0 ASB       0.080833
     96 H41          1.6780    -5.1760     2.7350 hc         0 ASB       0.080833
     97 H42          2.4640    -3.6050     2.4470 hc         0 ASB       0.080833
     98 H43          0.9120    -3.6780     3.3150 hc         0 ASB       0.080833
@<TRIPOS>BOND
     1     1     2 1   
     2     1    55 1   
     3     1    56 1   
     4     1    57 1   
     5     2     3 1   
     6     2     8 1   
     7     3     4 1   
     8     3     5 1   
     9     5     6 1   
    10     5    45 1   
    11     6     7 1   
    12     6    58 1   
    13     7     8 1   
    14     7    10 1   
    15     8     9 1   
    16    10    11 1   
    17    10    12 1   
    18    12    13 1   
    19    12    59 1   
    20    13    14 1   
    21    13    60 1   
    22    13    61 1   
    23    14    15 1   
    24    14    53 1   
    25    15    16 1   
    26    15    17 1   
    27    16    62 1   
    28    16    63 1   
    29    16    64 1   
    30    17    18 1   
    31    17    19 1   
    32    18    65 1   
    33    18    66 1   
    34    18    67 1   
    35    19    20 1   
    36    19    51 1   
    37    20    21 1   
    38    20    68 1   
    39    20    69 1   
    40    21    22 1   
    41    21    70 1   
    42    22    23 1   
    43    22    24 1   
    44    24    25 1   
    45    24    32 1   
    46    25    26 1   
    47    25    27 1   
    48    27    28 1   
    49    27    29 1   
    50    28    71 1   
    51    28    72 1   
    52    28    73 1   
    53    29    30 1   
    54    29    31 1   
    55    31    32 1   
    56    31    33 1   
    57    32    74 1   
    58    33    34 1   
    59    33    35 1   
    60    35    36 1   
    61    35    75 1   
    62    36    37 1   
    63    36    76 1   
    64    36    77 1   
    65    37    38 1   
    66    37    49 1   
    67    38    39 1   
    68    38    40 1   
    69    39    78 1   
    70    39    79 1   
    71    39    80 1   
    72    40    41 1   
    73    40    42 1   
    74    41    81 1   
    75    41    82 1   
    76    41    83 1   
    77    42    43 1   
    78    42    47 1   
    79    43    44 1   
    80    43    84 1   
    81    43    85 1   
    82    44    45 1   
    83    44    86 1   
    84    45    46 1   
    85    47    48 1   
    86    47    49 1   
    87    48    87 1   
    88    48    88 1   
    89    48    89 1   
    90    49    50 1   
    91    50    90 1   
    92    50    91 1   
    93    50    92 1   
    94    51    52 1   
    95    51    53 1   
    96    52    93 1   
    97    52    94 1   
    98    52    95 1   
    99    53    54 1   
   100    54    96 1   
   101    54    97 1   
   102    54    98 1   
@<TRIPOS>SUBSTRUCTURE
     1 ASB         1 TEMP              0 ****  ****    0 ROOT
