@<TRIPOS>MOLECULE
103
  156   156     1     0     0
SMALL
bcc


@<TRIPOS>ATOM
      1 O           -8.1760    -9.0990     1.0100 o          0 103      -0.635100
      2 C           -8.4010    -9.2840    -0.1710 c          0 103       0.741850
      3 N           -7.6650   -10.1750    -0.8880 n          0 103      -0.548650
      4 C1          -6.5960   -10.8900    -0.1640 c3         0 103       0.082750
      5 C2          -5.2760   -10.1420    -0.3610 c3         0 103      -0.116150
      6 C3          -4.1680   -10.8480     0.4220 c3         0 103       0.136900
      7 O1          -2.9420   -10.7670    -0.3100 os         0 103      -0.428725
      8 C4          -1.8860   -10.7550     0.6530 c3         0 103       0.127400
      9 C5          -0.5960   -11.2560     0.0000 c3         0 103       0.130150
     10 O2           0.5300   -10.6870     0.6710 os         0 103      -0.430350
     11 C6           1.6750   -10.9620    -0.1390 c3         0 103       0.130150
     12 C7           2.9430   -10.5610     0.6160 c3         0 103       0.127400
     13 O3           4.0870   -10.8360    -0.1950 os         0 103      -0.428725
     14 C8           5.2300   -10.3800     0.5320 c3         0 103       0.136900
     15 C9           6.2420    -9.7690    -0.4380 c3         0 103      -0.116150
     16 C10          7.6520   -10.2290    -0.0630 c3         0 103       0.082750
     17 N1           8.6320    -9.4530    -0.8470 n          0 103      -0.548650
     18 C11          9.2750    -8.4450    -0.1990 c          0 103       0.741850
     19 O4           9.0510    -8.2170     0.9750 o          0 103      -0.635100
     20 N2          10.1730    -7.6970    -0.8940 n          0 103      -0.548650
     21 C12         10.8570    -6.6210    -0.1510 c3         0 103       0.082750
     22 C13         10.2000    -5.2840    -0.5000 c3         0 103      -0.116150
     23 C14         10.8070    -4.1760     0.3640 c3         0 103       0.136900
     24 O5          10.8760    -2.9660    -0.3920 os         0 103      -0.428725
     25 C15         10.8200    -1.8890     0.5460 c3         0 103       0.127400
     26 C16         11.2100    -0.5840    -0.1510 c3         0 103       0.130150
     27 O6          10.8030     0.5250     0.6520 os         0 103      -0.430350
     28 C17         11.1750     1.7080    -0.0590 c3         0 103       0.130150
     29 C18         10.6940     2.9390     0.7110 c3         0 103       0.127400
     30 O7          10.2330     3.9280    -0.2120 os         0 103      -0.428725
     31 C19         10.5730     5.2010     0.3420 c3         0 103       0.136900
     32 C20         10.2920     6.2960    -0.6880 c3         0 103      -0.116150
     33 C21         10.2480     7.6560     0.0120 c3         0 103       0.082750
     34 N3           9.4490     8.5900    -0.8060 n          0 103      -0.548650
     35 C22          8.4540     9.2630    -0.1700 c          0 103       0.741850
     36 O8           8.2450     9.0930     1.0160 o          0 103      -0.635100
     37 N4           7.6970    10.1310    -0.8930 n          0 103      -0.548650
     38 C23          6.6260    10.8430    -0.1670 c3         0 103       0.082750
     39 C24          5.2960    10.1310    -0.4240 c3         0 103      -0.116150
     40 C25          4.1890    10.8140     0.3820 c3         0 103       0.136900
     41 O9           2.9600    10.7450    -0.3440 os         0 103      -0.428725
     42 C26          1.9070    10.7760     0.6210 c3         0 103       0.127400
     43 C27          0.6130    11.2380    -0.0520 c3         0 103       0.130150
     44 O10         -0.5100    10.7140     0.6610 os         0 103      -0.430350
     45 C28         -1.6790    11.1540    -0.0320 c3         0 103       0.130150
     46 C29         -2.9230    10.5710     0.6410 c3         0 103       0.127400
     47 O11         -4.0320    10.6480    -0.2570 os         0 103      -0.428725
     48 C30         -5.2110    10.4370     0.5220 c3         0 103       0.136900
     49 C31         -6.2390     9.6660    -0.3090 c3         0 103      -0.116150
     50 C32         -7.6350    10.2370    -0.0530 c3         0 103       0.082750
     51 N5          -8.6180     9.4630    -0.8360 n          0 103      -0.548650
     52 C33         -9.2670     8.4610    -0.1850 c          0 103       0.741850
     53 O12         -9.0460     8.2360     0.9900 o          0 103      -0.635100
     54 N6         -10.1700     7.7170    -0.8780 n          0 103      -0.548650
     55 C34        -10.8630     6.6490    -0.1320 c3         0 103       0.082750
     56 C35        -10.2520     5.2990    -0.5140 c3         0 103      -0.116150
     57 C36        -10.8660     4.1970     0.3520 c3         0 103       0.136900
     58 O13        -10.9180     2.9790    -0.3940 os         0 103      -0.428725
     59 C37        -10.8580     1.9110     0.5540 c3         0 103       0.127400
     60 C38        -11.3510     0.6200    -0.1020 c3         0 103       0.130150
     61 O14        -10.7590    -0.5040     0.5540 os         0 103      -0.430350
     62 C39        -11.1800    -1.6670    -0.1610 c3         0 103       0.130150
     63 C40        -10.6120    -2.9160     0.5180 c3         0 103       0.127400
     64 O15        -11.0040    -4.0770    -0.2170 os         0 103      -0.428725
     65 C41        -10.4190    -5.2010     0.4440 c3         0 103       0.136900
     66 C42        -10.0170    -6.2500    -0.5950 c3         0 103      -0.116150
     67 C43        -10.1700    -7.6490     0.0070 c3         0 103       0.082750
     68 N7          -9.3980    -8.6100    -0.8040 n          0 103      -0.548650
     69 H           -7.8340   -10.3320    -1.8300 hn         0 103       0.292250
     70 H1          -6.8380   -10.9300     0.8980 h1         0 103       0.067950
     71 H2          -6.5040   -11.9030    -0.5570 h1         0 103       0.067950
     72 H3          -5.0210   -10.1280    -1.4210 hc         0 103       0.058950
     73 H4          -5.3810    -9.1190     0.0010 hc         0 103       0.058950
     74 H5          -4.0440   -10.3670     1.3920 h1         0 103       0.031950
     75 H6          -4.4350   -11.8950     0.5670 h1         0 103       0.031950
     76 H7          -1.7380    -9.7380     1.0160 h1         0 103       0.041450
     77 H8          -2.1480   -11.4050     1.4870 h1         0 103       0.041450
     78 H9          -0.5510   -12.3430     0.0730 h1         0 103       0.042325
     79 H10         -0.5820   -10.9610    -1.0490 h1         0 103       0.042325
     80 H11          1.7100   -12.0270    -0.3680 h1         0 103       0.042325
     81 H12          1.6090   -10.3930    -1.0670 h1         0 103       0.042325
     82 H13          2.9080    -9.4960     0.8450 h1         0 103       0.041450
     83 H14          3.0100   -11.1300     1.5430 h1         0 103       0.041450
     84 H15          4.9210    -9.6280     1.2580 h1         0 103       0.031950
     85 H16          5.6880   -11.2210     1.0530 h1         0 103       0.031950
     86 H17          6.0120   -10.0920    -1.4540 hc         0 103       0.058950
     87 H18          6.1870    -8.6810    -0.3830 hc         0 103       0.058950
     88 H19          7.8190   -10.0600     1.0010 h1         0 103       0.067950
     89 H20          7.7620   -11.2900    -0.2880 h1         0 103       0.067950
     90 H21          8.8100    -9.6520    -1.7800 hn         0 103       0.292250
     91 H22         10.3560    -7.8640    -1.8310 hn         0 103       0.292250
     92 H23         10.7680    -6.8020     0.9200 h1         0 103       0.067950
     93 H24         11.9100    -6.5950    -0.4320 h1         0 103       0.067950
     94 H25         10.3710    -5.0580    -1.5530 hc         0 103       0.058950
     95 H26          9.1280    -5.3450    -0.3110 hc         0 103       0.058950
     96 H27         10.1840    -4.0200     1.2440 h1         0 103       0.031950
     97 H28         11.8100    -4.4670     0.6760 h1         0 103       0.031950
     98 H29          9.8070    -1.8020     0.9390 h1         0 103       0.041450
     99 H30         11.5120    -2.0840     1.3650 h1         0 103       0.041450
    100 H31         12.2900    -0.5560    -0.2910 h1         0 103       0.042325
    101 H32         10.7170    -0.5300    -1.1220 h1         0 103       0.042325
    102 H33         12.2600     1.7440    -0.1620 h1         0 103       0.042325
    103 H34         10.7170     1.6960    -1.0480 h1         0 103       0.042325
    104 H35          9.8790     2.6560     1.3770 h1         0 103       0.041450
    105 H36         11.5180     3.3460     1.2970 h1         0 103       0.041450
    106 H37          9.9740     5.3800     1.2350 h1         0 103       0.031950
    107 H38         11.6310     5.2120     0.6050 h1         0 103       0.031950
    108 H39         11.0820     6.3000    -1.4390 hc         0 103       0.058950
    109 H40          9.3330     6.1050    -1.1700 hc         0 103       0.058950
    110 H41          9.7890     7.5460     0.9940 h1         0 103       0.067950
    111 H42         11.2610     8.0420     0.1220 h1         0 103       0.067950
    112 H43          9.6260     8.7180    -1.7510 hn         0 103       0.292250
    113 H44          7.8530    10.2760    -1.8390 hn         0 103       0.292250
    114 H45          6.8430    10.8370     0.9010 h1         0 103       0.067950
    115 H46          6.5650    11.8710    -0.5230 h1         0 103       0.067950
    116 H47          5.0560    10.1820    -1.4860 hc         0 103       0.058950
    117 H48          5.3770     9.0880    -0.1190 hc         0 103       0.058950
    118 H49          4.0730    10.3080     1.3410 h1         0 103       0.031950
    119 H50          4.4530    11.8570     0.5520 h1         0 103       0.031950
    120 H51          1.7640     9.7780     1.0360 h1         0 103       0.041450
    121 H52          2.1670    11.4680     1.4220 h1         0 103       0.041450
    122 H53          0.5700    12.3270    -0.0470 h1         0 103       0.042325
    123 H54          0.5900    10.8790    -1.0800 h1         0 103       0.042325
    124 H55         -1.7290    12.2430    -0.0060 h1         0 103       0.042325
    125 H56         -1.6360    10.8180    -1.0680 h1         0 103       0.042325
    126 H57         -2.7390     9.5290     0.9030 h1         0 103       0.041450
    127 H58         -3.1470    11.1380     1.5450 h1         0 103       0.041450
    128 H59         -4.9600     9.8630     1.4140 h1         0 103       0.031950
    129 H60         -5.6300    11.4000     0.8150 h1         0 103       0.031950
    130 H61         -5.9960     9.7610    -1.3670 hc         0 103       0.058950
    131 H62         -6.2190     8.6130    -0.0250 hc         0 103       0.058950
    132 H63         -7.8710    10.1600     1.0080 h1         0 103       0.067950
    133 H64         -7.6640    11.2820    -0.3610 h1         0 103       0.067950
    134 H65         -8.7930     9.6600    -1.7690 hn         0 103       0.292250
    135 H66        -10.3500     7.8810    -1.8170 hn         0 103       0.292250
    136 H67        -10.7430     6.8140     0.9390 h1         0 103       0.067950
    137 H68        -11.9230     6.6550    -0.3860 h1         0 103       0.067950
    138 H69        -10.4560     5.0930    -1.5650 hc         0 103       0.058950
    139 H70         -9.1740     5.3300    -0.3530 hc         0 103       0.058950
    140 H71        -10.2550     4.0520     1.2420 h1         0 103       0.031950
    141 H72        -11.8750     4.4860     0.6460 h1         0 103       0.031950
    142 H73         -9.8290     1.7800     0.8880 h1         0 103       0.041450
    143 H74        -11.4910     2.1490     1.4090 h1         0 103       0.041450
    144 H75        -12.4360     0.5600    -0.0160 h1         0 103       0.042325
    145 H76        -11.0690     0.6160    -1.1550 h1         0 103       0.042325
    146 H77        -12.2690    -1.7180    -0.1620 h1         0 103       0.042325
    147 H78        -10.8180    -1.6150    -1.1870 h1         0 103       0.042325
    148 H79         -9.5240    -2.8520     0.5430 h1         0 103       0.041450
    149 H80        -10.9960    -2.9830     1.5360 h1         0 103       0.041450
    150 H81         -9.5360    -4.8790     0.9960 h1         0 103       0.031950
    151 H82        -11.1420    -5.6330     1.1350 h1         0 103       0.031950
    152 H83        -10.6590    -6.1600    -1.4710 hc         0 103       0.058950
    153 H84         -8.9790    -6.0930    -0.8870 hc         0 103       0.058950
    154 H85         -9.7930    -7.6490     1.0300 h1         0 103       0.067950
    155 H86        -11.2220    -7.9350     0.0030 h1         0 103       0.067950
    156 H87         -9.5890    -8.7510    -1.7440 hn         0 103       0.292250
@<TRIPOS>BOND
     1     1     2 2   
     2     2     3 1   
     3     2    68 1   
     4     3     4 1   
     5     3    69 1   
     6     4     5 1   
     7     4    70 1   
     8     4    71 1   
     9     5     6 1   
    10     5    72 1   
    11     5    73 1   
    12     6     7 1   
    13     6    74 1   
    14     6    75 1   
    15     7     8 1   
    16     8     9 1   
    17     8    76 1   
    18     8    77 1   
    19     9    10 1   
    20     9    78 1   
    21     9    79 1   
    22    10    11 1   
    23    11    12 1   
    24    11    80 1   
    25    11    81 1   
    26    12    13 1   
    27    12    82 1   
    28    12    83 1   
    29    13    14 1   
    30    14    15 1   
    31    14    84 1   
    32    14    85 1   
    33    15    16 1   
    34    15    86 1   
    35    15    87 1   
    36    16    17 1   
    37    16    88 1   
    38    16    89 1   
    39    17    18 1   
    40    17    90 1   
    41    18    19 2   
    42    18    20 1   
    43    20    21 1   
    44    20    91 1   
    45    21    22 1   
    46    21    92 1   
    47    21    93 1   
    48    22    23 1   
    49    22    94 1   
    50    22    95 1   
    51    23    24 1   
    52    23    96 1   
    53    23    97 1   
    54    24    25 1   
    55    25    26 1   
    56    25    98 1   
    57    25    99 1   
    58    26    27 1   
    59    26   100 1   
    60    26   101 1   
    61    27    28 1   
    62    28    29 1   
    63    28   102 1   
    64    28   103 1   
    65    29    30 1   
    66    29   104 1   
    67    29   105 1   
    68    30    31 1   
    69    31    32 1   
    70    31   106 1   
    71    31   107 1   
    72    32    33 1   
    73    32   108 1   
    74    32   109 1   
    75    33    34 1   
    76    33   110 1   
    77    33   111 1   
    78    34    35 1   
    79    34   112 1   
    80    35    36 2   
    81    35    37 1   
    82    37    38 1   
    83    37   113 1   
    84    38    39 1   
    85    38   114 1   
    86    38   115 1   
    87    39    40 1   
    88    39   116 1   
    89    39   117 1   
    90    40    41 1   
    91    40   118 1   
    92    40   119 1   
    93    41    42 1   
    94    42    43 1   
    95    42   120 1   
    96    42   121 1   
    97    43    44 1   
    98    43   122 1   
    99    43   123 1   
   100    44    45 1   
   101    45    46 1   
   102    45   124 1   
   103    45   125 1   
   104    46    47 1   
   105    46   126 1   
   106    46   127 1   
   107    47    48 1   
   108    48    49 1   
   109    48   128 1   
   110    48   129 1   
   111    49    50 1   
   112    49   130 1   
   113    49   131 1   
   114    50    51 1   
   115    50   132 1   
   116    50   133 1   
   117    51    52 1   
   118    51   134 1   
   119    52    53 2   
   120    52    54 1   
   121    54    55 1   
   122    54   135 1   
   123    55    56 1   
   124    55   136 1   
   125    55   137 1   
   126    56    57 1   
   127    56   138 1   
   128    56   139 1   
   129    57    58 1   
   130    57   140 1   
   131    57   141 1   
   132    58    59 1   
   133    59    60 1   
   134    59   142 1   
   135    59   143 1   
   136    60    61 1   
   137    60   144 1   
   138    60   145 1   
   139    61    62 1   
   140    62    63 1   
   141    62   146 1   
   142    62   147 1   
   143    63    64 1   
   144    63   148 1   
   145    63   149 1   
   146    64    65 1   
   147    65    66 1   
   148    65   150 1   
   149    65   151 1   
   150    66    67 1   
   151    66   152 1   
   152    66   153 1   
   153    67    68 1   
   154    67   154 1   
   155    67   155 1   
   156    68   156 1   
@<TRIPOS>SUBSTRUCTURE
     1 103         1 TEMP              0 ****  ****    0 ROOT
