@<TRIPOS>MOLECULE
URE
  118   124     1     0     0
SMALL
bcc


@<TRIPOS>ATOM
      1 C           -3.6800     8.3610    -1.7480 c3         0 URE      -0.220600
      2 C1          -3.0000     7.0600    -1.4040 c          0 URE       0.588600
      3 O           -2.6310     6.3200    -2.2830 o          0 URE      -0.592600
      4 C2          -2.7820     6.6840     0.0390 c3         0 URE      -0.167400
      5 C3          -2.2030     5.2700     0.1150 c3         0 URE       0.068500
      6 H           -2.1040     4.9740     1.1600 h2         0 URE       0.093700
      7 S           -3.3130     4.1180    -0.7350 ss         0 URE      -0.271450
      8 C4          -4.5430     3.8390     0.5660 c3         0 URE      -0.006800
      9 C5          -5.7120     3.0270     0.0060 c3         0 URE      -0.040300
     10 N           -5.2910     1.6060    -0.0770 n          0 URE      -0.498650
     11 C6          -6.2790     0.6810     0.0250 c          0 URE       0.662700
     12 O1          -7.4240     1.0480     0.2080 o          0 URE      -0.638600
     13 C7          -5.9940    -0.7460    -0.0820 ca         0 URE      -0.096350
     14 C8          -5.7800    -1.4050    -1.3070 ca         0 URE      -0.015125
     15 C9          -6.1540    -0.8110    -2.5240 ca         0 URE      -0.116625
     16 C10         -5.9260    -1.4640    -3.6930 ca         0 URE      -0.138875
     17 C11         -5.3110    -2.7180    -3.7210 ca         0 URE      -0.138875
     18 C12         -4.9160    -3.3390    -2.5760 ca         0 URE      -0.116625
     19 C13         -5.1370    -2.7270    -1.3320 ca         0 URE      -0.015125
     20 C14         -4.7630    -3.3480    -0.1210 ca         0 URE      -0.096350
     21 C15         -5.3070    -2.8420     1.0900 ca         0 URE      -0.015125
     22 C16         -5.2450    -3.5880     2.2810 ca         0 URE      -0.116625
     23 C17         -5.7390    -3.0470     3.4270 ca         0 URE      -0.138875
     24 C18         -6.3080    -1.7740     3.4580 ca         0 URE      -0.138875
     25 C19         -6.4010    -1.0110     2.3350 ca         0 URE      -0.116625
     26 C20         -5.9230    -1.5150     1.1160 ca         0 URE      -0.015125
     27 C21         -3.7620    -4.4140    -0.0500 c          0 URE       0.662700
     28 O2          -3.8480    -5.2450     0.8330 o          0 URE      -0.638600
     29 N1          -2.7390    -4.5020    -0.9450 n          0 URE      -0.498650
     30 C22         -1.6830    -5.4990    -0.6390 c3         0 URE      -0.040300
     31 C23         -0.3200    -4.8120    -0.7600 c3         0 URE      -0.006800
     32 S1           0.8410    -5.5080     0.4440 ss         0 URE      -0.271450
     33 C24          2.4100    -5.2040    -0.4160 c3         0 URE       0.068500
     34 H1           2.2180    -4.6560    -1.3390 h2         0 URE       0.093700
     35 C25          3.0790    -6.5400    -0.7440 c3         0 URE      -0.167400
     36 C26          2.2390    -7.2900    -1.7460 c          0 URE       0.588600
     37 C27          2.6160    -8.6930    -2.1450 c3         0 URE      -0.220600
     38 O3           1.2630    -6.7660    -2.2280 o          0 URE      -0.592600
     39 S2           3.5010    -4.2270     0.6510 ss         0 URE      -0.271450
     40 C28          4.7060    -3.6310    -0.5660 c3         0 URE      -0.006800
     41 C29          5.8890    -2.9900     0.1660 c3         0 URE      -0.040300
     42 N2           5.6020    -1.5530     0.3730 n          0 URE      -0.498650
     43 C30          6.2720    -0.6870    -0.4410 c          0 URE       0.662700
     44 O4           7.0430    -1.1080    -1.2830 o          0 URE      -0.638600
     45 C31          6.0560     0.7520    -0.2930 ca         0 URE      -0.096350
     46 C32          6.0600     1.6040    -1.4240 ca         0 URE      -0.015125
     47 C33          6.5500     1.1700    -2.6650 ca         0 URE      -0.116625
     48 C34          6.5090     2.0040    -3.7400 ca         0 URE      -0.138875
     49 C35          5.9870     3.2920    -3.6310 ca         0 URE      -0.138875
     50 C36          5.4940     3.7780    -2.4620 ca         0 URE      -0.116625
     51 C37          5.5050     2.9600    -1.3200 ca         0 URE      -0.015125
     52 C38          4.9550     3.4040    -0.0950 ca         0 URE      -0.096350
     53 C39          5.3030     2.6930     1.0870 ca         0 URE      -0.015125
     54 C40          5.1150     3.2350     2.3670 ca         0 URE      -0.116625
     55 C41          5.4930     2.5320     3.4690 ca         0 URE      -0.138875
     56 C42          6.0350     1.2540     3.3610 ca         0 URE      -0.138875
     57 C43          6.2190     0.6500     2.1560 ca         0 URE      -0.116625
     58 C44          5.8690     1.3400     0.9840 ca         0 URE      -0.015125
     59 C45          4.0180     4.5220    -0.0390 c          0 URE       0.662700
     60 O5           4.3290     5.5860    -0.5400 o          0 URE      -0.638600
     61 N3           2.8050     4.3970     0.5620 n          0 URE      -0.498650
     62 C46          1.9090     5.5770     0.4520 c3         0 URE      -0.040300
     63 C47          0.4860     5.1280     0.7980 c3         0 URE      -0.006800
     64 S3          -0.5710     5.2440    -0.6740 ss         0 URE      -0.271450
     65 C48          2.3540     6.6460     1.4170 c          0 URE       0.907600
     66 O6           3.3230     6.4560     2.1320 o          0 URE      -0.836925
     67 O7           1.7460     7.7000     1.4810 o          0 URE      -0.836925
     68 C49          6.0830    -3.6640     1.4990 c          0 URE       0.907600
     69 O8           6.8150    -4.6340     1.5920 o          0 URE      -0.836925
     70 O9           5.5060    -3.2390     2.4860 o          0 URE      -0.836925
     71 C50         -1.8660    -6.0190     0.7640 c          0 URE       0.907600
     72 O10         -2.0850    -7.2030     0.9510 o          0 URE      -0.836925
     73 O11         -1.7960    -5.2540     1.7110 o          0 URE      -0.836925
     74 C51         -6.9030     3.1520     0.9200 c          0 URE       0.907600
     75 O12         -7.7120     4.0480     0.7490 o          0 URE      -0.836925
     76 O13         -7.0580     2.3580     1.8320 o          0 URE      -0.836925
     77 H2          -3.7480     8.4590    -2.8320 hc         0 URE       0.081533
     78 H3          -4.6810     8.3720    -1.3190 hc         0 URE       0.081533
     79 H4          -3.1010     9.1910    -1.3440 hc         0 URE       0.081533
     80 H5          -2.0860     7.3870     0.4970 hc         0 URE       0.072200
     81 H6          -3.7330     6.7160     0.5710 hc         0 URE       0.072200
     82 H7          -4.0830     3.2920     1.3890 h1         0 URE       0.070700
     83 H8          -4.9090     4.7990     0.9300 h1         0 URE       0.070700
     84 H9          -5.9710     3.3930    -0.9880 h1         0 URE       0.079200
     85 H10         -4.3620     1.3530    -0.1970 hn         0 URE       0.313750
     86 H11         -6.6210     0.1630    -2.5300 ha         0 URE       0.171250
     87 H12         -6.2280    -1.0040    -4.6220 ha         0 URE       0.120750
     88 H13         -5.1450    -3.2050    -4.6700 ha         0 URE       0.120750
     89 H14         -4.4340    -4.3040    -2.6240 ha         0 URE       0.171250
     90 H15         -4.8110    -4.5770     2.2850 ha         0 URE       0.171250
     91 H16         -5.6890    -3.6210     4.3410 ha         0 URE       0.120750
     92 H17         -6.6830    -1.3860     4.3930 ha         0 URE       0.120750
     93 H18         -6.8390    -0.0250     2.3820 ha         0 URE       0.171250
     94 H19         -2.7020    -3.9440    -1.7370 hn         0 URE       0.313750
     95 H20         -1.7420    -6.3250    -1.3470 h1         0 URE       0.079200
     96 H21          0.0710    -4.9610    -1.7670 h1         0 URE       0.070700
     97 H22         -0.4360    -3.7450    -0.5750 h1         0 URE       0.070700
     98 H23          4.0680    -6.3570    -1.1640 hc         0 URE       0.072200
     99 H24          3.1740    -7.1320     0.1660 hc         0 URE       0.072200
    100 H25          2.1290    -9.4040    -1.4770 hc         0 URE       0.081533
    101 H26          2.2940    -8.8780    -3.1700 hc         0 URE       0.081533
    102 H27          3.6970    -8.8120    -2.0760 hc         0 URE       0.081533
    103 H28          5.0600    -4.4680    -1.1680 h1         0 URE       0.070700
    104 H29          4.2340    -2.8910    -1.2130 h1         0 URE       0.070700
    105 H30          6.7920    -3.0990    -0.4350 h1         0 URE       0.079200
    106 H31          4.9760    -1.2460     1.0470 hn         0 URE       0.313750
    107 H32          6.9600     0.1760    -2.7680 ha         0 URE       0.171250
    108 H33          6.8870     1.6630    -4.6930 ha         0 URE       0.120750
    109 H34          5.9740     3.9260    -4.5050 ha         0 URE       0.120750
    110 H35          5.0990     4.7820    -2.4110 ha         0 URE       0.171250
    111 H36          4.6690     4.2120     2.4780 ha         0 URE       0.171250
    112 H37          5.3710     2.9740     4.4470 ha         0 URE       0.120750
    113 H38          6.3160     0.7260     4.2600 ha         0 URE       0.120750
    114 H39          6.6310    -0.3470     2.1010 ha         0 URE       0.171250
    115 H40          2.5420     3.5910     1.0330 hn         0 URE       0.313750
    116 H41          1.9350     5.9650    -0.5660 h1         0 URE       0.079200
    117 H42          0.5060     4.0940     1.1440 h1         0 URE       0.070700
    118 H43          0.0870     5.7650     1.5870 h1         0 URE       0.070700
@<TRIPOS>BOND
     1     1     2 1   
     2     1    77 1   
     3     1    78 1   
     4     1    79 1   
     5     2     3 2   
     6     2     4 1   
     7     4     5 1   
     8     4    80 1   
     9     4    81 1   
    10     5     6 1   
    11     5     7 1   
    12     5    64 1   
    13     7     8 1   
    14     8     9 1   
    15     8    82 1   
    16     8    83 1   
    17     9    10 1   
    18     9    74 1   
    19     9    84 1   
    20    10    11 1   
    21    10    85 1   
    22    11    12 2   
    23    11    13 1   
    24    13    14 ar  
    25    13    26 ar  
    26    14    15 ar  
    27    14    19 ar  
    28    15    16 ar  
    29    15    86 1   
    30    16    17 ar  
    31    16    87 1   
    32    17    18 ar  
    33    17    88 1   
    34    18    19 ar  
    35    18    89 1   
    36    19    20 ar  
    37    20    21 ar  
    38    20    27 1   
    39    21    22 ar  
    40    21    26 ar  
    41    22    23 ar  
    42    22    90 1   
    43    23    24 ar  
    44    23    91 1   
    45    24    25 ar  
    46    24    92 1   
    47    25    26 ar  
    48    25    93 1   
    49    27    28 2   
    50    27    29 1   
    51    29    30 1   
    52    29    94 1   
    53    30    31 1   
    54    30    71 1   
    55    30    95 1   
    56    31    32 1   
    57    31    96 1   
    58    31    97 1   
    59    32    33 1   
    60    33    34 1   
    61    33    35 1   
    62    33    39 1   
    63    35    36 1   
    64    35    98 1   
    65    35    99 1   
    66    36    37 1   
    67    36    38 2   
    68    37   100 1   
    69    37   101 1   
    70    37   102 1   
    71    39    40 1   
    72    40    41 1   
    73    40   103 1   
    74    40   104 1   
    75    41    42 1   
    76    41    68 1   
    77    41   105 1   
    78    42    43 1   
    79    42   106 1   
    80    43    44 2   
    81    43    45 1   
    82    45    46 ar  
    83    45    58 ar  
    84    46    47 ar  
    85    46    51 ar  
    86    47    48 ar  
    87    47   107 1   
    88    48    49 ar  
    89    48   108 1   
    90    49    50 ar  
    91    49   109 1   
    92    50    51 ar  
    93    50   110 1   
    94    51    52 ar  
    95    52    53 ar  
    96    52    59 1   
    97    53    54 ar  
    98    53    58 ar  
    99    54    55 ar  
   100    54   111 1   
   101    55    56 ar  
   102    55   112 1   
   103    56    57 ar  
   104    56   113 1   
   105    57    58 ar  
   106    57   114 1   
   107    59    60 2   
   108    59    61 1   
   109    61    62 1   
   110    61   115 1   
   111    62    63 1   
   112    62    65 1   
   113    62   116 1   
   114    63    64 1   
   115    63   117 1   
   116    63   118 1   
   117    65    66 1   
   118    65    67 1   
   119    68    69 1   
   120    68    70 1   
   121    71    72 1   
   122    71    73 1   
   123    74    75 1   
   124    74    76 1   
@<TRIPOS>SUBSTRUCTURE
     1 URE         1 TEMP              0 ****  ****    0 ROOT
