@<TRIPOS>MOLECULE
170
  135   140     1     0     0
SMALL
bcc


@<TRIPOS>ATOM
      1 H           -2.7730     1.5170    -0.3730 ha         0 170       0.141000
      2 C           -3.4790     2.3060    -0.1590 ca         0 170      -0.100000
      3 C1          -3.0690     3.6330    -0.1770 ca         0 170      -0.057400
      4 C2          -3.9970     4.6530     0.0070 ca         0 170      -0.096800
      5 C3          -5.3140     4.3350     0.2650 ca         0 170      -0.060900
      6 C4          -5.7350     3.0250     0.3530 ca         0 170      -0.094200
      7 C5          -4.8150     1.9950     0.1330 ca         0 170      -0.079200
      8 C6          -5.1860     0.5680     0.2410 ce         0 170      -0.040800
      9 H1          -6.0770     0.2690     0.7740 ha         0 170       0.148600
     10 C7          -4.3880    -0.3420    -0.3860 cf         0 170       0.043900
     11 C8          -3.3220     0.1240    -1.2270 ch         0 170       0.199700
     12 N           -2.4790     0.4920    -1.8930 n1         0 170      -0.371200
     13 C9          -4.5150    -1.7980    -0.1730 ca         0 170      -0.057400
     14 C10         -3.4340    -2.5990    -0.5310 ca         0 170      -0.100000
     15 H2          -2.5760    -2.1610    -1.0180 ha         0 170       0.141000
     16 C11         -3.4590    -3.9650    -0.2620 ca         0 170      -0.079200
     17 C12         -4.6070    -4.5570     0.2750 ca         0 170      -0.094200
     18 C13         -5.6990    -3.7560     0.5730 ca         0 170      -0.060900
     19 C14         -5.6640    -2.3820     0.3610 ca         0 170      -0.096800
     20 C15         -6.9470    -4.3860     1.1380 c3         0 170      -0.010900
     21 C16         -6.7380    -5.8950     1.2770 c3         0 170      -0.088100
     22 C17         -7.2450    -3.7830     2.5120 c3         0 170      -0.088100
     23 C18         -8.1230    -4.1190     0.1970 c3         0 170      -0.088100
     24 C19         -2.2180    -4.7410    -0.4610 ce         0 170      -0.040800
     25 H3          -2.1970    -5.6670    -0.9880 ha         0 170       0.148600
     26 C20         -1.0930    -4.2290     0.1160 cf         0 170       0.043900
     27 C21         -1.2320    -3.0650     0.9530 ch         0 170       0.199700
     28 N1          -1.3420    -2.1470     1.6140 n1         0 170      -0.371200
     29 C22          0.2680    -4.7630    -0.0990 ca         0 170      -0.057400
     30 C23          1.3330    -4.0020     0.3810 ca         0 170      -0.100000
     31 H4           1.1410    -3.0960     0.9370 ha         0 170       0.141000
     32 C24          2.6450    -4.4080     0.1460 ca         0 170      -0.079200
     33 C25          2.8920    -5.6250    -0.5100 ca         0 170      -0.094200
     34 C26          1.8210    -6.3870    -0.9340 ca         0 170      -0.060900
     35 C27          0.5140    -5.9700    -0.7420 ca         0 170      -0.096800
     36 C28          2.0800    -7.7020    -1.6220 c3         0 170      -0.010900
     37 C29          3.5890    -7.9400    -1.7160 c3         0 170      -0.088100
     38 C30          1.4340    -8.8330    -0.8190 c3         0 170      -0.088100
     39 C31          1.4810    -7.6690    -3.0290 c3         0 170      -0.088100
     40 C32          3.7480    -3.5020     0.5140 ce         0 170      -0.040800
     41 H5           4.4790    -3.7410     1.2510 ha         0 170       0.148600
     42 C33          3.8040    -2.3190    -0.1640 cf         0 170       0.043900
     43 C34          2.8870    -2.1080    -1.2540 ch         0 170       0.199700
     44 N2           2.1640    -1.9420    -2.1130 n1         0 170      -0.371200
     45 C35          4.7150    -1.2140     0.1960 ca         0 170      -0.057400
     46 C36          4.3410     0.0700    -0.1880 ca         0 170      -0.100000
     47 H6           3.4480     0.2180    -0.7780 ha         0 170       0.141000
     48 C37          5.1160     1.1650     0.1890 ca         0 170      -0.079200
     49 C38          6.3230     0.9680     0.8720 ca         0 170      -0.094200
     50 C39          6.7070    -0.3200     1.2000 ca         0 170      -0.060900
     51 C40          5.9140    -1.4130     0.8790 ca         0 170      -0.096800
     52 C41          8.0120    -0.5410     1.9220 c3         0 170      -0.010900
     53 C42          8.6970     0.8060     2.1620 c3         0 170      -0.088100
     54 C43          7.7430    -1.2230     3.2650 c3         0 170      -0.088100
     55 C44          8.9210    -1.4310     1.0720 c3         0 170      -0.088100
     56 C45          4.5830     2.5200    -0.0560 ce         0 170      -0.040800
     57 H7           5.2020     3.3220    -0.4020 ha         0 170       0.148600
     58 C46          3.2650     2.7170     0.2230 cf         0 170       0.043900
     59 C47          2.5060     1.6270     0.7720 ch         0 170       0.199700
     60 N3           1.9060     0.7650     1.2050 n1         0 170      -0.371200
     61 C48          2.5590     3.9920    -0.0300 ca         0 170      -0.057400
     62 C49          1.1760     3.9990     0.1390 ca         0 170      -0.100000
     63 H8           0.6710     3.1130     0.4910 ha         0 170       0.141000
     64 C50          0.4460     5.1510    -0.1480 ca         0 170      -0.079200
     65 C51          1.1050     6.3180    -0.5540 ca         0 170      -0.094200
     66 C52          2.4860     6.3070    -0.6740 ca         0 170      -0.060900
     67 C53          3.2190     5.1580    -0.4080 ca         0 170      -0.096800
     68 C54          3.2040     7.5620    -1.1000 c3         0 170      -0.010900
     69 C55          2.1840     8.6790    -1.3310 c3         0 170      -0.088100
     70 C56          4.1840     7.9850    -0.0040 c3         0 170      -0.088100
     71 C57          3.9710     7.2950    -2.3960 c3         0 170      -0.088100
     72 C58         -1.0280     5.0900    -0.0570 ce         0 170      -0.040800
     73 H9          -1.6040     5.9500     0.2010 ha         0 170       0.148600
     74 C59         -1.6180     3.8900    -0.3310 cf         0 170       0.043900
     75 C60         -0.7970     2.8110    -0.8160 ch         0 170       0.199700
     76 N4          -0.1490     1.9590    -1.1980 n1         0 170      -0.371200
     77 C61         -6.3160     5.4440     0.4550 c3         0 170      -0.010900
     78 C62         -6.3730     6.3030    -0.8100 c3         0 170      -0.088100
     79 C63         -7.6970     4.8440     0.7270 c3         0 170      -0.088100
     80 C64         -5.8950     6.3130     1.6430 c3         0 170      -0.088100
     81 H10         -3.6890     5.6860    -0.0520 ha         0 170       0.142000
     82 H11         -6.7650     2.7970     0.5850 ha         0 170       0.145200
     83 H12         -4.6410    -5.6220     0.4560 ha         0 170       0.145200
     84 H13         -6.5200    -1.7720     0.6060 ha         0 170       0.142000
     85 H14         -5.8990    -6.0860     1.9480 hc         0 170       0.039500
     86 H15         -7.6400    -6.3510     1.6850 hc         0 170       0.039500
     87 H16         -6.5250    -6.3250     0.2980 hc         0 170       0.039500
     88 H17         -7.3940    -2.7080     2.4120 hc         0 170       0.039500
     89 H18         -8.1480    -4.2390     2.9200 hc         0 170       0.039500
     90 H19         -6.4070    -3.9740     3.1820 hc         0 170       0.039500
     91 H20         -7.9100    -4.5490    -0.7820 hc         0 170       0.039500
     92 H21         -9.0250    -4.5740     0.6050 hc         0 170       0.039500
     93 H22         -8.2720    -3.0440     0.0970 hc         0 170       0.039500
     94 H23          3.9040    -5.9590    -0.6820 ha         0 170       0.145200
     95 H24         -0.3070    -6.5790    -1.0900 ha         0 170       0.142000
     96 H25          4.0160    -7.9640    -0.7130 hc         0 170       0.039500
     97 H26          3.7760    -8.8910    -2.2130 hc         0 170       0.039500
     98 H27          4.0490    -7.1340    -2.2880 hc         0 170       0.039500
     99 H28          0.3600    -8.6640    -0.7530 hc         0 170       0.039500
    100 H29          1.6220    -9.7850    -1.3170 hc         0 170       0.039500
    101 H30          1.8620    -8.8570     0.1830 hc         0 170       0.039500
    102 H31          1.9410    -6.8630    -3.6010 hc         0 170       0.039500
    103 H32          1.6680    -8.6200    -3.5270 hc         0 170       0.039500
    104 H33          0.4060    -7.5000    -2.9630 hc         0 170       0.039500
    105 H34          6.9460     1.8100     1.1380 ha         0 170       0.145200
    106 H35          6.2240    -2.4100     1.1550 ha         0 170       0.142000
    107 H36          8.0490     1.4400     2.7670 hc         0 170       0.039500
    108 H37          9.6400     0.6460     2.6840 hc         0 170       0.039500
    109 H38          8.8880     1.2910     1.2050 hc         0 170       0.039500
    110 H39          7.2550    -2.1820     3.0940 hc         0 170       0.039500
    111 H40          8.6860    -1.3820     3.7870 hc         0 170       0.039500
    112 H41          7.0950    -0.5890     3.8710 hc         0 170       0.039500
    113 H42          9.1130    -0.9450     0.1150 hc         0 170       0.039500
    114 H43          9.8640    -1.5910     1.5930 hc         0 170       0.039500
    115 H44          8.4330    -2.3910     0.9010 hc         0 170       0.039500
    116 H45          0.5450     7.2160    -0.7710 ha         0 170       0.145200
    117 H46          4.2950     5.1680    -0.4950 ha         0 170       0.142000
    118 H47          1.6370     8.8680    -0.4070 hc         0 170       0.039500
    119 H48          2.7030     9.5860    -1.6390 hc         0 170       0.039500
    120 H49          1.4850     8.3770    -2.1110 hc         0 170       0.039500
    121 H50          4.9110     7.1890     0.1610 hc         0 170       0.039500
    122 H51          4.7030     8.8930    -0.3120 hc         0 170       0.039500
    123 H52          3.6380     8.1750     0.9190 hc         0 170       0.039500
    124 H53          3.2730     6.9940    -3.1770 hc         0 170       0.039500
    125 H54          4.4900     8.2030    -2.7040 hc         0 170       0.039500
    126 H55          4.6980     6.5000    -2.2310 hc         0 170       0.039500
    127 H56         -6.6730     5.6840    -1.6550 hc         0 170       0.039500
    128 H57         -7.0970     7.1060    -0.6720 hc         0 170       0.039500
    129 H58         -5.3890     6.7310    -1.0030 hc         0 170       0.039500
    130 H59         -7.6560     4.2320     1.6280 hc         0 170       0.039500
    131 H60         -8.4210     5.6470     0.8650 hc         0 170       0.039500
    132 H61         -7.9970     4.2250    -0.1190 hc         0 170       0.039500
    133 H62         -4.9110     6.7410     1.4490 hc         0 170       0.039500
    134 H63         -6.6200     7.1160     1.7810 hc         0 170       0.039500
    135 H64         -5.8550     5.7010     2.5440 hc         0 170       0.039500
@<TRIPOS>BOND
     1     1     2 1   
     2     2     3 ar  
     3     2     7 ar  
     4     3     4 ar  
     5     3    74 1   
     6     4     5 ar  
     7     4    81 1   
     8     5     6 ar  
     9     5    77 1   
    10     6     7 ar  
    11     6    82 1   
    12     7     8 1   
    13     8     9 1   
    14     8    10 2   
    15    10    11 1   
    16    10    13 1   
    17    11    12 3   
    18    13    14 ar  
    19    13    19 ar  
    20    14    15 1   
    21    14    16 ar  
    22    16    17 ar  
    23    16    24 1   
    24    17    18 ar  
    25    17    83 1   
    26    18    19 ar  
    27    18    20 1   
    28    19    84 1   
    29    20    21 1   
    30    20    22 1   
    31    20    23 1   
    32    21    85 1   
    33    21    86 1   
    34    21    87 1   
    35    22    88 1   
    36    22    89 1   
    37    22    90 1   
    38    23    91 1   
    39    23    92 1   
    40    23    93 1   
    41    24    25 1   
    42    24    26 2   
    43    26    27 1   
    44    26    29 1   
    45    27    28 3   
    46    29    30 ar  
    47    29    35 ar  
    48    30    31 1   
    49    30    32 ar  
    50    32    33 ar  
    51    32    40 1   
    52    33    34 ar  
    53    33    94 1   
    54    34    35 ar  
    55    34    36 1   
    56    35    95 1   
    57    36    37 1   
    58    36    38 1   
    59    36    39 1   
    60    37    96 1   
    61    37    97 1   
    62    37    98 1   
    63    38    99 1   
    64    38   100 1   
    65    38   101 1   
    66    39   102 1   
    67    39   103 1   
    68    39   104 1   
    69    40    41 1   
    70    40    42 2   
    71    42    43 1   
    72    42    45 1   
    73    43    44 3   
    74    45    46 ar  
    75    45    51 ar  
    76    46    47 1   
    77    46    48 ar  
    78    48    49 ar  
    79    48    56 1   
    80    49    50 ar  
    81    49   105 1   
    82    50    51 ar  
    83    50    52 1   
    84    51   106 1   
    85    52    53 1   
    86    52    54 1   
    87    52    55 1   
    88    53   107 1   
    89    53   108 1   
    90    53   109 1   
    91    54   110 1   
    92    54   111 1   
    93    54   112 1   
    94    55   113 1   
    95    55   114 1   
    96    55   115 1   
    97    56    57 1   
    98    56    58 2   
    99    58    59 1   
   100    58    61 1   
   101    59    60 3   
   102    61    62 ar  
   103    61    67 ar  
   104    62    63 1   
   105    62    64 ar  
   106    64    65 ar  
   107    64    72 1   
   108    65    66 ar  
   109    65   116 1   
   110    66    67 ar  
   111    66    68 1   
   112    67   117 1   
   113    68    69 1   
   114    68    70 1   
   115    68    71 1   
   116    69   118 1   
   117    69   119 1   
   118    69   120 1   
   119    70   121 1   
   120    70   122 1   
   121    70   123 1   
   122    71   124 1   
   123    71   125 1   
   124    71   126 1   
   125    72    73 1   
   126    72    74 2   
   127    74    75 1   
   128    75    76 3   
   129    77    78 1   
   130    77    79 1   
   131    77    80 1   
   132    78   127 1   
   133    78   128 1   
   134    78   129 1   
   135    79   130 1   
   136    79   131 1   
   137    79   132 1   
   138    80   133 1   
   139    80   134 1   
   140    80   135 1   
@<TRIPOS>SUBSTRUCTURE
     1 170         1 TEMP              0 ****  ****    0 ROOT
