@<TRIPOS>MOLECULE
99
   84    88     1     0     0
SMALL
bcc


@<TRIPOS>ATOM
      1 C1           3.7610    -1.2300     2.1890 c3         1 99       -0.088850
      2 C2           4.8610    -1.5190     1.1450 c3         1 99       -0.102600
      3 C3           6.2330    -1.2710     1.8080 c3         1 99       -0.088850
      4 C4           4.7410    -0.5850    -0.0410 cc         1 99        0.263250
      5 C5           5.0330    -0.7110    -1.3850 cd         1 99       -0.255550
      6 C6           4.7130     0.5280    -1.9870 cd         1 99       -0.222050
      7 C7           4.2340     1.3480    -0.9830 cc         1 99        0.152650
      8 C8           3.7780     2.7130    -1.0450 ce         1 99        0.380450
      9 N1           3.0790     3.3940    -0.2020 n2         1 99       -0.576400
     10 C9           2.5540     2.7530     1.0070 c3         1 99        0.076050
     11 C10          1.4110     3.6050     1.5800 c3         1 99        0.136650
     12 O1           0.1300     3.2750     1.0270 os         1 99       -0.433600
     13 C11         -0.0300     3.7130    -0.3250 c3         1 99        0.136650
     14 C12         -1.4640     3.4250    -0.7770 c3         1 99        0.076050
     15 N2          -1.6020     3.7690    -2.1920 n2         1 99       -0.576400
     16 C13         -2.6140     3.3330    -2.8630 ce         1 99        0.380450
     17 C14         -3.7500     2.5590    -2.4280 cc         1 99        0.152650
     18 C15         -4.6770     1.8440    -3.1620 cd         1 99       -0.222050
     19 C16         -5.5810     1.2720    -2.2340 cd         1 99       -0.255550
     20 C17         -5.1770     1.6910    -0.9810 cc         1 99        0.263250
     21 O2          -4.0710     2.4810    -1.1060 os         1 99       -0.345050
     22 C18         -5.6940     1.4350     0.4190 c3         1 99       -0.102600
     23 C19         -5.0490     2.3980     1.4420 c3         1 99       -0.088850
     24 C20         -7.2170     1.6950     0.4430 c3         1 99       -0.088850
     25 C21         -5.3870     0.0120     0.8320 cc         1 99        0.263250
     26 C22         -6.1490    -1.0730     1.2190 cd         1 99       -0.255550
     27 C23         -5.2400    -2.1200     1.5130 cd         1 99       -0.222050
     28 C24         -3.9710    -1.6270     1.2790 cc         1 99        0.152650
     29 C25         -2.6830    -2.2550     1.4470 ce         1 99        0.380450
     30 N3          -1.5110    -1.8690     1.0680 n2         1 99       -0.576400
     31 C26         -1.3630    -0.6360     0.2880 c3         1 99        0.076050
     32 C27          0.1060    -0.4370    -0.1100 c3         1 99        0.136650
     33 O3           0.5250    -1.2350    -1.2240 os         1 99       -0.433600
     34 C28          0.6470    -2.6240    -0.9090 c3         1 99        0.136650
     35 C29          1.5300    -3.2900    -1.9640 c3         1 99        0.076050
     36 N4           1.6400    -4.7310    -1.7430 n2         1 99       -0.576400
     37 C30          2.5910    -5.2430    -1.0390 ce         1 99        0.380450
     38 C31          3.6570    -4.6150    -0.3000 cc         1 99        0.152650
     39 C32          4.8020    -5.1600     0.2500 cd         1 99       -0.222050
     40 C33          5.4950    -4.1040     0.8910 cd         1 99       -0.255550
     41 C34          4.7320    -2.9670     0.7140 cc         1 99        0.263250
     42 O4           3.6120    -3.2860    -0.0020 os         1 99       -0.345050
     43 O5          -4.0660    -0.3320     0.8670 os         1 99       -0.345050
     44 O6           4.2840     0.6790     0.2060 os         1 99       -0.345050
     45 H1           3.8360    -0.2120     2.5880 hc         1 99        0.050950
     46 H2           2.7600    -1.3410     1.7570 hc         1 99        0.050950
     47 H3           3.8280    -1.9220     3.0380 hc         1 99        0.050950
     48 H4           6.3710    -1.8980     2.6970 hc         1 99        0.050950
     49 H5           7.0590    -1.4870     1.1190 hc         1 99        0.050950
     50 H6           6.3390    -0.2260     2.1230 hc         1 99        0.050950
     51 H7           5.4160    -1.5980    -1.8720 ha         1 99        0.164000
     52 H8           4.8020     0.7880    -3.0320 ha         1 99        0.164000
     53 H9           4.0750     3.2520    -1.9620 h4         1 99        0.028050
     54 H10          3.3580     2.7000     1.7490 h1         1 99        0.066575
     55 H11          2.1690     1.7490     0.8030 h1         1 99        0.066575
     56 H12          1.3300     3.3900     2.6510 h1         1 99        0.052325
     57 H13          1.6000     4.6800     1.4760 h1         1 99        0.052325
     58 H14          0.6590     3.1660    -0.9770 h1         1 99        0.052325
     59 H15          0.1820     4.7850    -0.4030 h1         1 99        0.052325
     60 H16         -2.1570     4.0140    -0.1640 h1         1 99        0.066575
     61 H17         -1.6670     2.3640    -0.5950 h1         1 99        0.066575
     62 H18         -2.6160     3.5820    -3.9390 h4         1 99        0.028050
     63 H19         -4.6840     1.7290    -4.2370 ha         1 99        0.164000
     64 H20         -6.4220     0.6280    -2.4490 ha         1 99        0.164000
     65 H21         -5.4360     2.2200     2.4530 hc         1 99        0.050950
     66 H22         -5.2520     3.4460     1.1870 hc         1 99        0.050950
     67 H23         -3.9600     2.2780     1.4900 hc         1 99        0.050950
     68 H24         -7.4490     2.7210     0.1290 hc         1 99        0.050950
     69 H25         -7.6320     1.5540     1.4480 hc         1 99        0.050950
     70 H26         -7.7580     1.0190    -0.2300 hc         1 99        0.050950
     71 H27         -7.2270    -1.1070     1.2950 ha         1 99        0.164000
     72 H28         -5.4810    -3.1170     1.8570 ha         1 99        0.164000
     73 H29         -2.7140    -3.2170     1.9880 h4         1 99        0.028050
     74 H30         -1.6570     0.2220     0.9040 h1         1 99        0.066575
     75 H31         -1.9760    -0.6780    -0.6200 h1         1 99        0.066575
     76 H32          0.7790    -0.5950     0.7390 h1         1 99        0.052325
     77 H33          0.2340     0.6010    -0.4320 h1         1 99        0.052325
     78 H34          1.0790    -2.7590     0.0880 h1         1 99        0.052325
     79 H35         -0.3470    -3.0840    -0.9270 h1         1 99        0.052325
     80 H36          2.5010    -2.7920    -2.0520 h1         1 99        0.066575
     81 H37          1.0680    -3.1390    -2.9480 h1         1 99        0.066575
     82 H38          2.5990    -6.3460    -0.9890 h4         1 99        0.028050
     83 H39          5.1020    -6.1980     0.1920 ha         1 99        0.164000
     84 H40          6.4330    -4.1700     1.4250 ha         1 99        0.164000
@<TRIPOS>BOND
     1     1     2 1   
     2     1    45 1   
     3     1    46 1   
     4     1    47 1   
     5     2     3 1   
     6     2     4 1   
     7     2    41 1   
     8     3    48 1   
     9     3    49 1   
    10     3    50 1   
    11     4     5 2   
    12     4    44 1   
    13     5     6 1   
    14     5    51 1   
    15     6     7 2   
    16     6    52 1   
    17     7     8 1   
    18     7    44 1   
    19     8     9 2   
    20     8    53 1   
    21     9    10 1   
    22    10    11 1   
    23    10    54 1   
    24    10    55 1   
    25    11    12 1   
    26    11    56 1   
    27    11    57 1   
    28    12    13 1   
    29    13    14 1   
    30    13    58 1   
    31    13    59 1   
    32    14    15 1   
    33    14    60 1   
    34    14    61 1   
    35    15    16 2   
    36    16    17 1   
    37    16    62 1   
    38    17    18 2   
    39    17    21 1   
    40    18    19 1   
    41    18    63 1   
    42    19    20 2   
    43    19    64 1   
    44    20    21 1   
    45    20    22 1   
    46    22    23 1   
    47    22    24 1   
    48    22    25 1   
    49    23    65 1   
    50    23    66 1   
    51    23    67 1   
    52    24    68 1   
    53    24    69 1   
    54    24    70 1   
    55    25    26 2   
    56    25    43 1   
    57    26    27 1   
    58    26    71 1   
    59    27    28 2   
    60    27    72 1   
    61    28    29 1   
    62    28    43 1   
    63    29    30 2   
    64    29    73 1   
    65    30    31 1   
    66    31    32 1   
    67    31    74 1   
    68    31    75 1   
    69    32    33 1   
    70    32    76 1   
    71    32    77 1   
    72    33    34 1   
    73    34    35 1   
    74    34    78 1   
    75    34    79 1   
    76    35    36 1   
    77    35    80 1   
    78    35    81 1   
    79    36    37 2   
    80    37    38 1   
    81    37    82 1   
    82    38    39 2   
    83    38    42 1   
    84    39    40 1   
    85    39    83 1   
    86    40    41 2   
    87    40    84 1   
    88    41    42 1   
@<TRIPOS>SUBSTRUCTURE
     1 99          1 TEMP              0 ****  ****    0 ROOT
