@<TRIPOS>MOLECULE
174
  105   112     1     0     0
SMALL
bcc


@<TRIPOS>ATOM
      1 O           -1.4420    -5.1530     2.1580 oh         0 174      -0.509314
      2 C           -0.8030    -5.4240     0.9890 ca         0 174       0.099600
      3 C1           0.5840    -5.4590     0.9480 ca         0 174      -0.145786
      4 C2           1.2320    -5.7330    -0.2410 ca         0 174      -0.093014
      5 C3           0.4990    -5.8570    -1.4140 ca         0 174       0.099600
      6 O1           1.1400    -6.0130    -2.6030 oh         0 174      -0.509314
      7 C4          -0.8850    -5.8220    -1.3740 ca         0 174      -0.145786
      8 C5          -1.5370    -5.6700    -0.1630 ca         0 174      -0.093014
      9 C6          -3.0200    -5.8710    -0.0870 c3         0 174       0.009914
     10 C7          -3.7980    -4.5920    -0.1020 ca         0 174      -0.093014
     11 C8          -3.9980    -3.9030    -1.2840 ca         0 174      -0.145786
     12 C9          -4.8320    -2.7960    -1.3050 ca         0 174       0.099600
     13 O2          -5.0440    -2.1290    -2.4710 oh         0 174      -0.509314
     14 C10         -5.4500    -2.3670    -0.1390 ca         0 174      -0.093014
     15 C11         -6.4900    -1.2940    -0.1840 c3         0 174       0.009914
     16 C12         -5.9620     0.1000    -0.0880 ca         0 174      -0.093014
     17 C13         -5.4650     0.7460    -1.2060 ca         0 174      -0.145786
     18 C14         -5.1170     2.0860    -1.1350 ca         0 174       0.099600
     19 O3          -4.6470     2.7250    -2.2390 oh         0 174      -0.509314
     20 C15         -5.2470     2.7740     0.0620 ca         0 174      -0.093014
     21 C16         -5.0570     4.2560     0.1220 c3         0 174       0.009914
     22 C17         -3.6340     4.7080     0.0800 ca         0 174      -0.093014
     23 C18         -2.9020     4.8240     1.2490 ca         0 174      -0.145786
     24 C19         -1.6360     5.3840     1.2200 ca         0 174       0.099600
     25 O4          -0.9240     5.5150     2.3720 oh         0 174      -0.509314
     26 C20         -1.0920     5.8120     0.0180 ca         0 174      -0.093014
     27 C21          0.1830     6.5910    -0.0080 c3         0 174       0.009914
     28 C22          1.4270     5.7640     0.0430 ca         0 174      -0.093014
     29 C23          1.8970     5.2620     1.2490 ca         0 174       0.099600
     30 O5           1.1510     5.3950     2.3780 oh         0 174      -0.509314
     31 C24          3.1270     4.6260     1.3010 ca         0 174      -0.145786
     32 C25          3.8780     4.4740     0.1520 ca         0 174      -0.093014
     33 C26          5.2820     3.9660     0.2200 c3         0 174       0.009914
     34 C27          5.4130     2.4770     0.2040 ca         0 174      -0.093014
     35 C28          5.6510     1.8130    -0.9940 ca         0 174       0.099600
     36 O6           5.6180     2.4970    -2.1690 oh         0 174      -0.509314
     37 C29          5.9220     0.4560    -0.9900 ca         0 174      -0.145786
     38 C30          5.9380    -0.2440     0.2020 ca         0 174      -0.093014
     39 C31          6.4170    -1.6600     0.2370 c3         0 174       0.009914
     40 C32          5.3410    -2.6900     0.1120 ca         0 174      -0.093014
     41 C33          4.8340    -3.0330    -1.1340 ca         0 174       0.099600
     42 O7           5.2160    -2.3380    -2.2390 oh         0 174      -0.509314
     43 C34          3.9380    -4.0830    -1.2510 ca         0 174      -0.145786
     44 C35          3.5360    -4.7790    -0.1260 ca         0 174      -0.093014
     45 C36          2.7050    -6.0050    -0.2600 c3         0 174       0.009914
     46 C37          3.9450    -4.3540     1.1310 ca         0 174       0.099600
     47 O8           3.4580    -4.9600     2.2470 oh         0 174      -0.509314
     48 C38          4.8490    -3.3110     1.2470 ca         0 174      -0.145786
     49 C39          5.5600     0.3920     1.3790 ca         0 174       0.099600
     50 O9           5.4430    -0.3220     2.5300 oh         0 174      -0.509314
     51 C40          5.3020     1.7530     1.3770 ca         0 174      -0.145786
     52 C41          3.3420     4.8490    -1.0760 ca         0 174       0.099600
     53 O10          4.0180     4.5800    -2.2240 oh         0 174      -0.509314
     54 C42          2.1200     5.4970    -1.1260 ca         0 174      -0.145786
     55 C43         -1.7670     5.5660    -1.1660 ca         0 174      -0.145786
     56 C44         -3.0380     5.0170    -1.1360 ca         0 174       0.099600
     57 O11         -3.7030     4.7810    -2.2980 oh         0 174      -0.509314
     58 C45         -5.6100     2.0910     1.2110 ca         0 174      -0.145786
     59 C46         -5.9710     0.7570     1.1370 ca         0 174       0.099600
     60 O12         -6.3350     0.0890     2.2640 oh         0 174      -0.509314
     61 C47         -5.1410    -2.9760     1.0650 ca         0 174      -0.145786
     62 C48         -4.3200    -4.0900     1.0850 ca         0 174       0.099600
     63 O13         -4.0230    -4.6950     2.2660 oh         0 174      -0.509314
     64 H           -1.5560    -4.1930     2.1990 ho         0 174       0.429357
     65 H1           1.1560    -5.2720     1.8450 ha         0 174       0.146357
     66 H2           1.2520    -6.9640    -2.7380 ho         0 174       0.429357
     67 H3          -1.4550    -5.9170    -2.2860 ha         0 174       0.146357
     68 H4          -3.3330    -6.4800    -0.9350 hc         0 174       0.068057
     69 H5          -3.2520    -6.4100     0.8320 hc         0 174       0.068057
     70 H6          -3.5060    -4.2270    -2.1880 ha         0 174       0.146357
     71 H7          -5.8110    -2.5400    -2.8930 ho         0 174       0.429357
     72 H8          -7.0410    -1.3890    -1.1190 hc         0 174       0.068057
     73 H9          -7.1860    -1.4550     0.6390 hc         0 174       0.068057
     74 H10         -5.3500     0.2060    -2.1340 ha         0 174       0.146357
     75 H11         -5.4150     3.0930    -2.6960 ho         0 174       0.429357
     76 H12         -5.5860     4.7060    -0.7190 hc         0 174       0.068057
     77 H13         -5.5090     4.6240     1.0440 hc         0 174       0.068057
     78 H14         -3.3180     4.4760     2.1830 ha         0 174       0.146357
     79 H15         -1.1920     6.3530     2.7720 ho         0 174       0.429357
     80 H16          0.2040     7.1880    -0.9200 hc         0 174       0.068057
     81 H17          0.1880     7.2710     0.8440 hc         0 174       0.068057
     82 H18          1.4700     6.1870     2.8320 ho         0 174       0.429357
     83 H19          3.4990     4.2480     2.2420 ha         0 174       0.146357
     84 H20          5.8360     4.3700    -0.6270 hc         0 174       0.068057
     85 H21          5.7390     4.3410     1.1360 hc         0 174       0.068057
     86 H22          6.5160     2.8180    -2.3310 ho         0 174       0.429357
     87 H23          6.1210    -0.0580    -1.9190 ha         0 174       0.146357
     88 H24          7.1270    -1.8030    -0.5780 hc         0 174       0.068057
     89 H25          6.9430    -1.8230     1.1780 hc         0 174       0.068057
     90 H26          5.9990    -2.7830    -2.5910 ho         0 174       0.429357
     91 H27          3.5530    -4.3580    -2.2220 ha         0 174       0.146357
     92 H28          2.9470    -6.6820     0.5600 hc         0 174       0.068057
     93 H29          2.9550    -6.4960    -1.2000 hc         0 174       0.068057
     94 H30          4.0590    -5.6900     2.4530 ho         0 174       0.429357
     95 H31          5.1700    -2.9820     2.2240 ha         0 174       0.146357
     96 H32          6.3080    -0.2990     2.9620 ho         0 174       0.429357
     97 H33          5.0130     2.2480     2.2920 ha         0 174       0.146357
     98 H34          3.7270     3.7080    -2.5230 ho         0 174       0.429357
     99 H35          1.7060     5.7940    -2.0780 ha         0 174       0.146357
    100 H36         -1.3020     5.8010    -2.1120 ha         0 174       0.146357
    101 H37         -4.1300     5.6120    -2.5500 ho         0 174       0.429357
    102 H38         -5.6130     2.6000     2.1640 ha         0 174       0.146357
    103 H39         -7.2920     0.1970     2.3570 ho         0 174       0.429357
    104 H40         -5.5400    -2.5820     1.9880 ha         0 174       0.146357
    105 H41         -4.7030    -5.3660     2.4150 ho         0 174       0.429357
@<TRIPOS>BOND
     1     1     2 1   
     2     1    64 1   
     3     2     3 ar  
     4     2     8 ar  
     5     3     4 ar  
     6     3    65 1   
     7     4     5 ar  
     8     4    45 1   
     9     5     6 1   
    10     5     7 ar  
    11     6    66 1   
    12     7     8 ar  
    13     7    67 1   
    14     8     9 1   
    15     9    10 1   
    16     9    68 1   
    17     9    69 1   
    18    10    11 ar  
    19    10    62 ar  
    20    11    12 ar  
    21    11    70 1   
    22    12    13 1   
    23    12    14 ar  
    24    13    71 1   
    25    14    15 1   
    26    14    61 ar  
    27    15    16 1   
    28    15    72 1   
    29    15    73 1   
    30    16    17 ar  
    31    16    59 ar  
    32    17    18 ar  
    33    17    74 1   
    34    18    19 1   
    35    18    20 ar  
    36    19    75 1   
    37    20    21 1   
    38    20    58 ar  
    39    21    22 1   
    40    21    76 1   
    41    21    77 1   
    42    22    23 ar  
    43    22    56 ar  
    44    23    24 ar  
    45    23    78 1   
    46    24    25 1   
    47    24    26 ar  
    48    25    79 1   
    49    26    27 1   
    50    26    55 ar  
    51    27    28 1   
    52    27    80 1   
    53    27    81 1   
    54    28    29 ar  
    55    28    54 ar  
    56    29    30 1   
    57    29    31 ar  
    58    30    82 1   
    59    31    32 ar  
    60    31    83 1   
    61    32    33 1   
    62    32    52 ar  
    63    33    34 1   
    64    33    84 1   
    65    33    85 1   
    66    34    35 ar  
    67    34    51 ar  
    68    35    36 1   
    69    35    37 ar  
    70    36    86 1   
    71    37    38 ar  
    72    37    87 1   
    73    38    39 1   
    74    38    49 ar  
    75    39    40 1   
    76    39    88 1   
    77    39    89 1   
    78    40    41 ar  
    79    40    48 ar  
    80    41    42 1   
    81    41    43 ar  
    82    42    90 1   
    83    43    44 ar  
    84    43    91 1   
    85    44    45 1   
    86    44    46 ar  
    87    45    92 1   
    88    45    93 1   
    89    46    47 1   
    90    46    48 ar  
    91    47    94 1   
    92    48    95 1   
    93    49    50 1   
    94    49    51 ar  
    95    50    96 1   
    96    51    97 1   
    97    52    53 1   
    98    52    54 ar  
    99    53    98 1   
   100    54    99 1   
   101    55    56 ar  
   102    55   100 1   
   103    56    57 1   
   104    57   101 1   
   105    58    59 ar  
   106    58   102 1   
   107    59    60 1   
   108    60   103 1   
   109    61    62 ar  
   110    61   104 1   
   111    62    63 1   
   112    63   105 1   
@<TRIPOS>SUBSTRUCTURE
     1 174         1 TEMP              0 ****  ****    0 ROOT
