@<TRIPOS>MOLECULE
128
   92    96     1     0     0
SMALL
bcc


@<TRIPOS>ATOM
      1 O1           4.1010    -2.3040     5.3560 o          1 128      -0.602933
      2 C1           3.6940    -1.4680     4.5570 c          1 128       0.668867
      3 N1           4.5750    -0.6150     3.9320 n          1 128      -0.560067
      4 C2           4.3930    -0.0580     2.5990 c3         1 128       0.084667
      5 C3           4.6970    -1.0980     1.4970 c3         1 128       0.153800
      6 N2           4.0110    -0.8160     0.2240 n3         1 128      -0.757100
      7 C4           4.0610    -1.9980    -0.6720 c3         1 128       0.153800
      8 C5           2.8970    -2.9730    -0.4180 c3         1 128       0.084667
      9 N3           1.6200    -2.5010    -0.9260 n          1 128      -0.560067
     10 C6           1.3480    -2.5370    -2.2770 c          1 128       0.668867
     11 O2           2.1710    -2.8640    -3.1250 o          1 128      -0.602933
     12 C7          -0.0270    -2.1560    -2.6870 ca         1 128      -0.140433
     13 C8          -0.2190    -1.5540    -3.9370 ca         1 128      -0.076667
     14 C9          -1.5090    -1.2670    -4.3870 ca         1 128      -0.137667
     15 C10         -2.6120    -1.5960    -3.5980 ca         1 128      -0.076667
     16 C11         -2.4200    -2.1940    -2.3490 ca         1 128      -0.140433
     17 C12         -1.1300    -2.4830    -1.8900 ca         1 128      -0.060667
     18 C13         -3.6010    -2.6070    -1.5630 c          1 128       0.668867
     19 O3          -4.4850    -3.2760    -2.0860 o          1 128      -0.602933
     20 N4          -3.6960    -2.2490    -0.2390 n          1 128      -0.560067
     21 C14         -3.1450    -1.0330     0.3450 c3         1 128       0.084667
     22 C15         -3.9950     0.2040    -0.0160 c3         1 128       0.153800
     23 N5          -3.4610     1.5130     0.4280 n3         1 128      -0.757100
     24 C16         -3.2880     1.5780     1.8930 c3         1 128       0.153800
     25 C17         -1.8210     1.3420     2.3110 c3         1 128       0.084667
     26 N6          -1.6480     1.5210     3.7500 n          1 128      -0.560067
     27 C18         -0.5220     1.1620     4.4550 c          1 128       0.668867
     28 O4          -0.1190     1.9010     5.3510 o          1 128      -0.602933
     29 C19          0.1860    -0.1130     4.1810 ca         1 128      -0.140433
     30 C20         -0.5060    -1.2790     3.8280 ca         1 128      -0.076667
     31 C21          0.1810    -2.4870     3.6720 ca         1 128      -0.137667
     32 C22          1.5580    -2.5390     3.8930 ca         1 128      -0.076667
     33 C23          2.2490    -1.3780     4.2520 ca         1 128      -0.140433
     34 C24          1.5660    -0.1680     4.4110 ca         1 128      -0.060667
     35 C25         -4.3240     2.6050    -0.0810 c3         1 128       0.153800
     36 C26         -3.8120     3.2070    -1.4060 c3         1 128       0.084667
     37 N7          -3.9340     2.3310    -2.5650 n          1 128      -0.560067
     38 C27         -2.9900     2.1690    -3.5520 c          1 128       0.668867
     39 O5          -3.3050     1.8200    -4.6840 o          1 128      -0.602933
     40 C28         -1.5720     2.4110    -3.2240 ca         1 128      -0.140433
     41 C29         -0.8550     3.3790    -3.9260 ca         1 128      -0.076667
     42 C30          0.4610     3.6530    -3.5560 ca         1 128      -0.137667
     43 C31          1.0610     2.9440    -2.5070 ca         1 128      -0.076667
     44 C32          0.3670     1.9220    -1.8490 ca         1 128      -0.140433
     45 C33         -0.9620     1.6720    -2.2090 ca         1 128      -0.060667
     46 C34          0.9250     1.1190    -0.7270 c          1 128       0.668867
     47 O6           0.2040     0.3590    -0.0790 o          1 128      -0.602933
     48 N8           2.2380     1.2270    -0.3470 n          1 128      -0.560067
     49 C35          3.3740     1.0430    -1.2540 c3         1 128       0.084667
     50 C36          4.5330     0.3790    -0.4730 c3         1 128       0.153800
     51 H1           5.5300    -0.7910     4.2250 hn         1 128       0.313833
     52 H2           3.3700     0.3130     2.5010 h1         1 128       0.060867
     53 H3           5.0680     0.7990     2.5150 h1         1 128       0.060867
     54 H4           4.3690    -2.0790     1.8620 h1         1 128       0.042200
     55 H5           5.7830    -1.1740     1.3530 h1         1 128       0.042200
     56 H6           4.0270    -1.6890    -1.7230 h1         1 128       0.042200
     57 H7           5.0170    -2.5240    -0.5470 h1         1 128       0.042200
     58 H8           2.7670    -3.1850     0.6480 h1         1 128       0.060867
     59 H9           3.1210    -3.9240    -0.9160 h1         1 128       0.060867
     60 H10          1.0520    -1.9030    -0.3310 hn         1 128       0.313833
     61 H11          0.6360    -1.3240    -4.5700 ha         1 128       0.148500
     62 H12         -1.6600    -0.7970    -5.3570 ha         1 128       0.151333
     63 H13         -3.6170    -1.3930    -3.9630 ha         1 128       0.148500
     64 H14         -0.9980    -3.0050    -0.9470 ha         1 128       0.160000
     65 H15         -4.5590    -2.5920     0.1670 hn         1 128       0.313833
     66 H16         -2.1160    -0.8950     0.0120 h1         1 128       0.060867
     67 H17         -3.1390    -1.1970     1.4270 h1         1 128       0.060867
     68 H18         -5.0060     0.0560     0.3850 h1         1 128       0.042200
     69 H19         -4.1010     0.2160    -1.1060 h1         1 128       0.042200
     70 H20         -3.5610     2.5690     2.2800 h1         1 128       0.042200
     71 H21         -3.9560     0.8800     2.4140 h1         1 128       0.042200
     72 H22         -1.1670     2.0750     1.8240 h1         1 128       0.060867
     73 H23         -1.4740     0.3540     2.0120 h1         1 128       0.060867
     74 H24         -1.9610     2.4220     4.0950 hn         1 128       0.313833
     75 H25         -1.5870    -1.2650     3.7110 ha         1 128       0.148500
     76 H26         -0.3610    -3.3920     3.4110 ha         1 128       0.151333
     77 H27          2.0880    -3.4850     3.8080 ha         1 128       0.148500
     78 H28          2.0980     0.7200     4.7460 ha         1 128       0.160000
     79 H29         -5.3680     2.2820    -0.1800 h1         1 128       0.042200
     80 H30         -4.3370     3.4450     0.6250 h1         1 128       0.042200
     81 H31         -2.7860     3.5650    -1.2830 h1         1 128       0.060867
     82 H32         -4.4160     4.0910    -1.6420 h1         1 128       0.060867
     83 H33         -4.8710     2.1610    -2.9110 hn         1 128       0.313833
     84 H34         -1.3270     3.9320    -4.7350 ha         1 128       0.148500
     85 H35          1.0170     4.4320    -4.0730 ha         1 128       0.151333
     86 H36          2.0650     3.2240    -2.2110 ha         1 128       0.148500
     87 H37         -1.5360     0.9080    -1.6910 ha         1 128       0.160000
     88 H38          2.3500     0.5980     0.4440 hn         1 128       0.313833
     89 H39          3.7020     2.0210    -1.6130 h1         1 128       0.060867
     90 H40          3.0590     0.4330    -2.1070 h1         1 128       0.060867
     91 H41          4.8930     1.1190     0.2510 h1         1 128       0.042200
     92 H42          5.3780     0.1480    -1.1320 h1         1 128       0.042200
@<TRIPOS>BOND
     1     1     2 2   
     2     2     3 1   
     3     2    33 1   
     4     3     4 1   
     5     3    51 1   
     6     4     5 1   
     7     4    52 1   
     8     4    53 1   
     9     5     6 1   
    10     5    54 1   
    11     5    55 1   
    12     6     7 1   
    13     6    50 1   
    14     7     8 1   
    15     7    56 1   
    16     7    57 1   
    17     8     9 1   
    18     8    58 1   
    19     8    59 1   
    20     9    10 1   
    21     9    60 1   
    22    10    11 2   
    23    10    12 1   
    24    12    13 ar  
    25    12    17 ar  
    26    13    14 ar  
    27    13    61 1   
    28    14    15 ar  
    29    14    62 1   
    30    15    16 ar  
    31    15    63 1   
    32    16    17 ar  
    33    16    18 1   
    34    17    64 1   
    35    18    19 2   
    36    18    20 1   
    37    20    21 1   
    38    20    65 1   
    39    21    22 1   
    40    21    66 1   
    41    21    67 1   
    42    22    23 1   
    43    22    68 1   
    44    22    69 1   
    45    23    24 1   
    46    23    35 1   
    47    24    25 1   
    48    24    70 1   
    49    24    71 1   
    50    25    26 1   
    51    25    72 1   
    52    25    73 1   
    53    26    27 1   
    54    26    74 1   
    55    27    28 2   
    56    27    29 1   
    57    29    30 ar  
    58    29    34 ar  
    59    30    31 ar  
    60    30    75 1   
    61    31    32 ar  
    62    31    76 1   
    63    32    33 ar  
    64    32    77 1   
    65    33    34 ar  
    66    34    78 1   
    67    35    36 1   
    68    35    79 1   
    69    35    80 1   
    70    36    37 1   
    71    36    81 1   
    72    36    82 1   
    73    37    38 1   
    74    37    83 1   
    75    38    39 2   
    76    38    40 1   
    77    40    41 ar  
    78    40    45 ar  
    79    41    42 ar  
    80    41    84 1   
    81    42    43 ar  
    82    42    85 1   
    83    43    44 ar  
    84    43    86 1   
    85    44    45 ar  
    86    44    46 1   
    87    45    87 1   
    88    46    47 2   
    89    46    48 1   
    90    48    49 1   
    91    48    88 1   
    92    49    50 1   
    93    49    89 1   
    94    49    90 1   
    95    50    91 1   
    96    50    92 1   
@<TRIPOS>SUBSTRUCTURE
     1 128         1 TEMP              0 ****  ****    0 ROOT
