@<TRIPOS>MOLECULE
131
  102   107     1     0     0
SMALL
bcc


@<TRIPOS>ATOM
      1 O           -6.8910     0.6950     1.0280 o          0 131      -0.609100
      2 C           -5.8670     0.5210     0.4020 c          0 131       0.636100
      3 N           -4.8960     1.4550     0.4280 n          0 131      -0.559400
      4 C1          -5.1150     2.6920     1.1780 c3         0 131       0.131800
      5 C2          -3.8470     3.5020     1.2600 ca         0 131      -0.119300
      6 C3          -3.3590     4.1490     0.1400 ca         0 131      -0.117250
      7 C4          -2.1930     4.8910     0.2220 ca         0 131      -0.127750
      8 C5          -1.5190     4.9860     1.4240 ca         0 131      -0.077300
      9 C6          -0.2500     5.7960     1.5240 c3         0 131       0.001700
     10 C7           0.9140     4.9550     1.0740 ca         0 131      -0.049800
     11 C8           1.3280     3.8800     1.8430 ca         0 131      -0.136500
     12 C9           2.3920     3.1050     1.4320 ca         0 131      -0.085500
     13 C10          3.0570     3.4080     0.2430 ca         0 131      -0.146100
     14 C11          2.6370     4.4970    -0.5250 ca         0 131      -0.085500
     15 C12          1.5670     5.2610    -0.1050 ca         0 131      -0.136500
     16 C13          4.1880     2.5720    -0.2110 c          0 131       0.677200
     17 O1           5.0080     3.0170    -0.9860 o          0 131      -0.612600
     18 N1           4.2730     1.2930     0.2160 n          0 131      -0.569400
     19 C14          5.4180     0.4580    -0.1750 c3         0 131       0.040200
     20 C15          5.0630    -0.3280    -1.4290 c3         0 131      -0.094400
     21 C16          4.9820     0.5920    -2.6440 c3         0 131      -0.079400
     22 C17          3.5460     1.0480    -2.8900 c3         0 131      -0.100900
     23 C18          2.5690    -0.1110    -2.6910 c3         0 131       0.082500
     24 N2           1.2490     0.2850    -3.1990 n          0 131      -0.520400
     25 C19          0.1430    -0.0160    -2.4880 c          0 131       0.586400
     26 S            0.2640    -0.8670    -1.0070 s          0 131      -0.642400
     27 N3          -1.0680     0.3620    -2.9530 n          0 131      -0.520400
     28 C20         -2.2640     0.0470    -2.1650 c3         0 131       0.082500
     29 C21         -3.4910     0.0500    -3.0780 c3         0 131      -0.100900
     30 C22         -4.4680    -1.0290    -2.6020 c3         0 131      -0.079400
     31 C23         -5.6470    -0.3800    -1.8850 c3         0 131      -0.094400
     32 C24         -5.6960    -0.7440    -0.4080 c3         0 131       0.040200
     33 N4          -4.4940    -1.4390     0.0390 n          0 131      -0.569400
     34 C25         -4.3730    -2.7770    -0.0960 c          0 131       0.677200
     35 O2          -5.2490    -3.4190    -0.6460 o          0 131      -0.612600
     36 C26         -3.1750    -3.4620     0.4350 ca         0 131      -0.146100
     37 C27         -2.2920    -2.7840     1.2770 ca         0 131      -0.085500
     38 C28         -1.1740    -3.4290     1.7670 ca         0 131      -0.136500
     39 C29         -0.9200    -4.7430     1.4200 ca         0 131      -0.049800
     40 C30          0.3010    -5.4390     1.9650 c3         0 131       0.001700
     41 C31          1.5400    -4.7140     1.5050 ca         0 131      -0.077300
     42 C32          2.1790    -3.8260     2.3500 ca         0 131      -0.127750
     43 C33          3.3260    -3.1760     1.9330 ca         0 131      -0.117250
     44 C34          3.8330    -3.4080     0.6710 ca         0 131      -0.119300
     45 C35          5.0910    -2.7220     0.2030 c3         0 131       0.131800
     46 N5           5.5220    -1.7110     1.1470 n          0 131      -0.559400
     47 C36          5.7600    -0.4340     0.9760 c          0 131       0.636100
     48 O3           6.3750     0.1010     1.8960 o          0 131      -0.609100
     49 C37          3.1840    -4.2870    -0.1810 ca         0 131      -0.117250
     50 C38          2.0390    -4.9370     0.2360 ca         0 131      -0.127750
     51 C39         -1.7860    -5.4200     0.5790 ca         0 131      -0.136500
     52 C40         -2.9130    -4.7900     0.0880 ca         0 131      -0.085500
     53 C41         -2.0040     4.3350     2.5430 ca         0 131      -0.127750
     54 C42         -3.1670     3.5940     2.4620 ca         0 131      -0.117250
     55 H           -4.0600     1.3120    -0.0450 hn         0 131       0.324000
     56 H1          -5.8820     3.2840     0.6770 h1         0 131       0.067700
     57 H2          -5.4500     2.4490     2.1860 h1         0 131       0.067700
     58 H3          -3.8870     4.0750    -0.7990 ha         0 131       0.143000
     59 H4          -1.8100     5.3920    -0.6540 ha         0 131       0.134750
     60 H5          -0.3320     6.6780     0.8900 hc         0 131       0.061450
     61 H6          -0.1000     6.1040     2.5590 hc         0 131       0.061450
     62 H7           0.8180     3.6540     2.7670 ha         0 131       0.138500
     63 H8           2.7110     2.2680     2.0350 ha         0 131       0.148750
     64 H9           3.1430     4.7330    -1.4480 ha         0 131       0.148750
     65 H10          1.2400     6.0990    -0.7020 ha         0 131       0.138500
     66 H11          3.5740     0.9210     0.7760 hn         0 131       0.323500
     67 H12          6.2670     1.1160    -0.3920 h1         0 131       0.110700
     68 H13          5.8460    -1.0730    -1.6140 hc         0 131       0.062950
     69 H14          4.1150    -0.8390    -1.2830 hc         0 131       0.062950
     70 H15          5.6190     1.4630    -2.4820 hc         0 131       0.054950
     71 H16          5.3430     0.0540    -3.5250 hc         0 131       0.054950
     72 H17          3.2910     1.8560    -2.2050 hc         0 131       0.050200
     73 H18          3.4580     1.4170    -3.9150 hc         0 131       0.050200
     74 H19          2.9210    -0.9880    -3.2320 h1         0 131       0.071200
     75 H20          2.4860    -0.3400    -1.6290 h1         0 131       0.071200
     76 H21          1.1750     0.7630    -4.0380 hn         0 131       0.303000
     77 H22         -1.1430     0.8350    -3.7960 hn         0 131       0.303000
     78 H23         -2.1520    -0.9410    -1.7150 h1         0 131       0.071200
     79 H24         -2.3910     0.7900    -1.3790 h1         0 131       0.071200
     80 H25         -3.9730     1.0250    -3.0400 hc         0 131       0.050200
     81 H26         -3.1850    -0.1680    -4.1010 hc         0 131       0.050200
     82 H27         -4.8340    -1.5840    -3.4690 hc         0 131       0.054950
     83 H28         -3.9450    -1.7150    -1.9420 hc         0 131       0.054950
     84 H29         -5.5740     0.7050    -1.9810 hc         0 131       0.062950
     85 H30         -6.5750    -0.7040    -2.3610 hc         0 131       0.062950
     86 H31         -6.5660    -1.3840    -0.2270 h1         0 131       0.110700
     87 H32         -3.7690    -0.9300     0.4370 hn         0 131       0.323500
     88 H33         -2.4830    -1.7580     1.5520 ha         0 131       0.148750
     89 H34         -0.5000    -2.9040     2.4280 ha         0 131       0.138500
     90 H35          0.2620    -5.4400     3.0550 hc         0 131       0.061450
     91 H36          0.3250    -6.4680     1.6050 hc         0 131       0.061450
     92 H37          1.7830    -3.6400     3.3390 ha         0 131       0.134750
     93 H38          3.8220    -2.4860     2.6010 ha         0 131       0.143000
     94 H39          5.8810    -3.4790     0.1140 h1         0 131       0.067700
     95 H40          4.9190    -2.3070    -0.7820 h1         0 131       0.067700
     96 H41          5.6570    -2.0240     2.0730 hn         0 131       0.324000
     97 H42          3.5750    -4.4600    -1.1710 ha         0 131       0.143000
     98 H43          1.5350    -5.6220    -0.4290 ha         0 131       0.134750
     99 H44         -1.5790    -6.4430     0.3040 ha         0 131       0.138500
    100 H45         -3.5910    -5.3220    -0.5630 ha         0 131       0.148750
    101 H46         -1.4700     4.4000     3.4790 ha         0 131       0.134750
    102 H47         -3.5470     3.0880     3.3380 ha         0 131       0.143000
@<TRIPOS>BOND
     1     1     2 2   
     2     2     3 1   
     3     2    32 1   
     4     3     4 1   
     5     3    55 1   
     6     4     5 1   
     7     4    56 1   
     8     4    57 1   
     9     5     6 ar  
    10     5    54 ar  
    11     6     7 ar  
    12     6    58 1   
    13     7     8 ar  
    14     7    59 1   
    15     8     9 1   
    16     8    53 ar  
    17     9    10 1   
    18     9    60 1   
    19     9    61 1   
    20    10    11 ar  
    21    10    15 ar  
    22    11    12 ar  
    23    11    62 1   
    24    12    13 ar  
    25    12    63 1   
    26    13    14 ar  
    27    13    16 1   
    28    14    15 ar  
    29    14    64 1   
    30    15    65 1   
    31    16    17 2   
    32    16    18 1   
    33    18    19 1   
    34    18    66 1   
    35    19    20 1   
    36    19    47 1   
    37    19    67 1   
    38    20    21 1   
    39    20    68 1   
    40    20    69 1   
    41    21    22 1   
    42    21    70 1   
    43    21    71 1   
    44    22    23 1   
    45    22    72 1   
    46    22    73 1   
    47    23    24 1   
    48    23    74 1   
    49    23    75 1   
    50    24    25 1   
    51    24    76 1   
    52    25    26 2   
    53    25    27 1   
    54    27    28 1   
    55    27    77 1   
    56    28    29 1   
    57    28    78 1   
    58    28    79 1   
    59    29    30 1   
    60    29    80 1   
    61    29    81 1   
    62    30    31 1   
    63    30    82 1   
    64    30    83 1   
    65    31    32 1   
    66    31    84 1   
    67    31    85 1   
    68    32    33 1   
    69    32    86 1   
    70    33    34 1   
    71    33    87 1   
    72    34    35 2   
    73    34    36 1   
    74    36    37 ar  
    75    36    52 ar  
    76    37    38 ar  
    77    37    88 1   
    78    38    39 ar  
    79    38    89 1   
    80    39    40 1   
    81    39    51 ar  
    82    40    41 1   
    83    40    90 1   
    84    40    91 1   
    85    41    42 ar  
    86    41    50 ar  
    87    42    43 ar  
    88    42    92 1   
    89    43    44 ar  
    90    43    93 1   
    91    44    45 1   
    92    44    49 ar  
    93    45    46 1   
    94    45    94 1   
    95    45    95 1   
    96    46    47 1   
    97    46    96 1   
    98    47    48 2   
    99    49    50 ar  
   100    49    97 1   
   101    50    98 1   
   102    51    52 ar  
   103    51    99 1   
   104    52   100 1   
   105    53    54 ar  
   106    53   101 1   
   107    54   102 1   
@<TRIPOS>SUBSTRUCTURE
     1 131         1 TEMP              0 ****  ****    0 ROOT
