@<TRIPOS>MOLECULE
135
  166   176     1     0     0
SMALL
bcc


@<TRIPOS>ATOM
      1 C            9.2490     5.1460     4.1080 c3         0 135      -0.097600
      2 C1           8.4820     4.1380     3.2510 c3         0 135      -0.076400
      3 C2           9.1220     4.0560     1.8640 c3         0 135      -0.015850
      4 C3           8.3660     3.0620     1.0200 cc         0 135      -0.100550
      5 C4           7.2770     3.3150     0.1910 cd         0 135      -0.190700
      6 N            6.9130     2.1090    -0.3740 na         0 135      -0.133350
      7 C5           7.7430     1.1300     0.0540 cd         0 135      -0.039800
      8 C6           8.6500     1.7100     0.9480 cc         0 135      -0.123800
      9 C7           9.7390     1.0030     1.7120 c3         0 135      -0.029800
     10 C8           7.8370    -0.3050    -0.2280 cd         0 135      -0.039800
     11 C9           8.8670    -0.8490    -0.9780 cc         0 135      -0.123800
     12 C10         10.0140    -0.1080    -1.6230 c3         0 135      -0.029800
     13 C11          8.6710    -2.2180    -1.0510 cc         0 135      -0.100550
     14 C12          9.5870    -3.1750    -1.7720 c3         0 135      -0.015850
     15 C13         10.6650    -3.6730    -0.8070 c3         0 135      -0.076400
     16 C14         11.5940    -4.6440    -1.5380 c3         0 135      -0.097600
     17 C15          7.4990    -2.5190    -0.3500 cd         0 135      -0.190700
     18 N1           7.0130    -1.3270     0.1470 na         0 135      -0.133350
     19 C16          7.0190    -3.8130    -0.2500 cf         0 135       0.523300
     20 N2           6.0420    -4.4810     0.2550 ne         0 135      -0.612100
     21 C17          6.2150    -5.8580     0.1820 ca         0 135       0.102400
     22 C18          7.5200    -6.3610     0.0840 ca         0 135      -0.133000
     23 C19          7.7460    -7.7190    -0.0170 ca         0 135      -0.132500
     24 C20          6.6900    -8.6140    -0.0180 ca         0 135      -0.117000
     25 C21          5.4030    -8.1320     0.0870 ca         0 135      -0.127500
     26 C22          5.1430    -6.7710     0.1960 ca         0 135       0.059850
     27 N3           3.8060    -6.3880     0.3180 n          0 135      -0.453850
     28 C23          2.8800    -7.2610     0.6120 c          0 135       0.583600
     29 O            3.2260    -8.0310     1.4930 o          0 135      -0.583850
     30 C24          1.5490    -7.5800     0.1270 ca         0 135       0.356300
     31 N4           0.4430    -7.1030     0.6480 nb         0 135      -0.618500
     32 C25         -0.7560    -7.3840     0.1850 ca         0 135       0.356300
     33 C26         -0.8950    -8.2520    -0.9150 ca         0 135      -0.193800
     34 C27          0.2350    -8.8080    -1.4840 ca         0 135      -0.094500
     35 C28          1.4720    -8.4740    -0.9650 ca         0 135      -0.193800
     36 C29         -1.9740    -6.8630     0.7780 c          0 135       0.583600
     37 O1          -1.9630    -6.7920     1.9980 o          0 135      -0.583850
     38 N5          -3.0820    -6.3770     0.2320 n          0 135      -0.453850
     39 C30         -4.2960    -7.0450     0.4030 ca         0 135       0.059850
     40 C31         -4.2900    -8.4010     0.6930 ca         0 135      -0.127500
     41 C32         -5.4760    -9.0960     0.8400 ca         0 135      -0.117000
     42 C33         -6.6840    -8.4320     0.7170 ca         0 135      -0.132500
     43 C34         -6.7120    -7.0770     0.4620 ca         0 135      -0.133000
     44 C35         -5.5260    -6.3570     0.3100 ca         0 135       0.102400
     45 N6          -5.5800    -4.9970     0.0900 ne         0 135      -0.612100
     46 C36         -6.6850    -4.4850    -0.2880 cf         0 135       0.523300
     47 C37         -7.2620    -3.2370    -0.4710 cd         0 135      -0.190700
     48 C38         -8.4050    -3.0320    -1.2400 cc         0 135      -0.100550
     49 C39         -9.1920    -4.0630    -2.0090 c3         0 135      -0.015850
     50 C40        -10.2820    -4.6480    -1.1080 c3         0 135      -0.076400
     51 C41        -11.0800    -5.6940    -1.8880 c3         0 135      -0.097600
     52 C42         -8.7260    -1.6850    -1.1760 cc         0 135      -0.123800
     53 C43         -9.8950    -1.0480    -1.8880 c3         0 135      -0.029800
     54 C44         -7.7860    -1.0590    -0.3780 cd         0 135      -0.039800
     55 N7          -6.8800    -2.0030     0.0180 na         0 135      -0.133350
     56 C45         -7.8550     0.3630    -0.0310 cd         0 135      -0.039800
     57 C46         -8.8780     0.9030     0.7290 cc         0 135      -0.123800
     58 C47        -10.0410     0.1690     1.3540 c3         0 135      -0.029800
     59 C48         -8.6630     2.2680     0.8380 cc         0 135      -0.100550
     60 C49         -9.5710     3.2180     1.5770 c3         0 135      -0.015850
     61 C50         -9.1210     3.3230     3.0360 c3         0 135      -0.076400
     62 C51        -10.0420     4.2870     3.7860 c3         0 135      -0.097600
     63 C52         -7.4810     2.5700     0.1540 cd         0 135      -0.190700
     64 N8          -7.0010     1.3820    -0.3550 na         0 135      -0.133350
     65 C53         -6.9980     3.8640     0.0670 cf         0 135       0.523300
     66 N9          -6.0170     4.5220    -0.4460 ne         0 135      -0.612100
     67 C54         -6.1830     5.9000    -0.3920 ca         0 135       0.102400
     68 C55         -7.4880     6.4010    -0.2840 ca         0 135      -0.133000
     69 C56         -7.7160     7.7610    -0.2110 ca         0 135      -0.132500
     70 C57         -6.6620     8.6560    -0.2520 ca         0 135      -0.117000
     71 C58         -5.3730     8.1780    -0.3630 ca         0 135      -0.127500
     72 C59         -5.1130     6.8120    -0.4370 ca         0 135       0.059850
     73 N10         -3.7810     6.4200    -0.5530 n          0 135      -0.453850
     74 C60         -2.8330     7.2590    -0.8610 c          0 135       0.583600
     75 O2          -3.1380     7.9850    -1.7920 o          0 135      -0.583850
     76 C61         -1.5140     7.5850    -0.3480 ca         0 135       0.356300
     77 N11         -0.4000     7.1470    -0.8860 nb         0 135      -0.618500
     78 C62          0.7930     7.4230    -0.4050 ca         0 135       0.356300
     79 C63          0.9170     8.2490     0.7280 ca         0 135      -0.193800
     80 C64         -0.2240     8.7680     1.3120 ca         0 135      -0.094500
     81 C65         -1.4550     8.4370     0.7760 ca         0 135      -0.193800
     82 C66          2.0110     6.9250    -1.0170 c          0 135       0.583600
     83 O3           1.9760     6.8780    -2.2390 o          0 135      -0.583850
     84 N12          3.1300     6.4390    -0.5130 n          0 135      -0.453850
     85 C67          4.3360     7.1290    -0.6520 ca         0 135       0.059850
     86 C68          4.3110     8.4930    -0.9000 ca         0 135      -0.127500
     87 C69          5.4950     9.2010    -1.0190 ca         0 135      -0.117000
     88 C70          6.7080     8.5490    -0.9040 ca         0 135      -0.132500
     89 C71          6.7530     7.1880    -0.6830 ca         0 135      -0.133000
     90 C72          5.5720     6.4550    -0.5630 ca         0 135       0.102400
     91 N13          5.6290     5.0910    -0.3740 ne         0 135      -0.612100
     92 C73          6.7290     4.5790     0.0160 cf         0 135       0.523300
     93 H            8.7930     5.2050     5.0960 hc         0 135       0.035950
     94 H1          10.2870     4.8250     4.2060 hc         0 135       0.035950
     95 H2           9.2160     6.1270     3.6340 hc         0 135       0.035950
     96 H3           8.5160     3.1570     3.7260 hc         0 135       0.041450
     97 H4           7.4450     4.4590     3.1540 hc         0 135       0.041450
     98 H5           9.0880     5.0360     1.3890 hc         0 135       0.049200
     99 H6          10.1590     3.7350     1.9610 hc         0 135       0.049200
    100 H7           6.1700     1.9940    -0.9870 hn         0 135       0.314700
    101 H8          10.6550     1.0020     1.1220 hc         0 135       0.045117
    102 H9           9.9140     1.5200     2.6560 hc         0 135       0.045117
    103 H10          9.4340    -0.0240     1.9120 hc         0 135       0.045117
    104 H11         10.8480    -0.0510    -0.9240 hc         0 135       0.045117
    105 H12         10.3290    -0.6380    -2.5220 hc         0 135       0.045117
    106 H13          9.6920     0.8980    -1.8890 hc         0 135       0.045117
    107 H14          9.0100    -4.0220    -2.1410 hc         0 135       0.049200
    108 H15         10.0590    -2.6640    -2.6110 hc         0 135       0.049200
    109 H16         11.2420    -2.8260    -0.4380 hc         0 135       0.041450
    110 H17         10.1930    -4.1840     0.0320 hc         0 135       0.041450
    111 H18         12.3620    -4.9990    -0.8500 hc         0 135       0.035950
    112 H19         11.0170    -5.4920    -1.9070 hc         0 135       0.035950
    113 H20         12.0660    -4.1330    -2.3770 hc         0 135       0.035950
    114 H21          6.2100    -1.2280     0.6810 hn         0 135       0.314700
    115 H22          7.6160    -4.4690    -0.8660 h4         0 135      -0.003450
    116 H23          8.3710    -5.6930     0.1030 ha         0 135       0.136000
    117 H24          8.7580    -8.0850    -0.0940 ha         0 135       0.136250
    118 H25          6.8710    -9.6750    -0.1010 ha         0 135       0.139000
    119 H26          4.5830    -8.8340     0.0720 ha         0 135       0.164000
    120 H27          3.5660    -5.4470     0.1860 hn         0 135       0.337250
    121 H28         -1.8780    -8.4800    -1.3000 ha         0 135       0.161500
    122 H29          0.1530    -9.4990    -2.3120 ha         0 135       0.166000
    123 H30          2.3740    -8.8890    -1.3870 ha         0 135       0.161500
    124 H31         -3.0540    -5.5410    -0.2870 hn         0 135       0.337250
    125 H32         -3.3530    -8.9290     0.8050 ha         0 135       0.164000
    126 H33         -5.4590   -10.1540     1.0510 ha         0 135       0.139000
    127 H34         -7.6120    -8.9760     0.8170 ha         0 135       0.136250
    128 H35         -7.6740    -6.5870     0.4050 ha         0 135       0.136000
    129 H36         -7.3750    -5.2530    -0.5880 h4         0 135      -0.003450
    130 H37         -9.6530    -3.5940    -2.8780 hc         0 135       0.049200
    131 H38         -8.5240    -4.8600    -2.3360 hc         0 135       0.049200
    132 H39         -9.8210    -5.1160    -0.2380 hc         0 135       0.041450
    133 H40        -10.9490    -3.8510    -0.7800 hc         0 135       0.041450
    134 H41        -11.8570    -6.1110    -1.2460 hc         0 135       0.035950
    135 H42        -11.5410    -5.2260    -2.7570 hc         0 135       0.035950
    136 H43        -10.4130    -6.4910    -2.2150 hc         0 135       0.035950
    137 H44        -10.7730    -1.0750    -1.2420 hc         0 135       0.045117
    138 H45         -9.6530    -0.0120    -2.1290 hc         0 135       0.045117
    139 H46        -10.1030    -1.5950    -2.8080 hc         0 135       0.045117
    140 H47         -6.0930    -1.8380     0.5510 hn         0 135       0.314700
    141 H48         -9.7670    -0.1600     2.3560 hc         0 135       0.045117
    142 H49        -10.9020     0.8350     1.4120 hc         0 135       0.045117
    143 H50        -10.2930    -0.6980     0.7430 hc         0 135       0.045117
    144 H51         -9.5250     4.2020     1.1110 hc         0 135       0.049200
    145 H52        -10.5950     2.8450     1.5390 hc         0 135       0.049200
    146 H53         -9.1670     2.3390     3.5020 hc         0 135       0.041450
    147 H54         -8.0970     3.6960     3.0730 hc         0 135       0.041450
    148 H55         -9.7210     4.3620     4.8250 hc         0 135       0.035950
    149 H56         -9.9970     5.2710     3.3190 hc         0 135       0.035950
    150 H57        -11.0660     3.9140     3.7480 hc         0 135       0.035950
    151 H58         -6.1820     1.2820    -0.8640 hn         0 135       0.314700
    152 H59         -7.5860     4.5210     0.6940 h4         0 135      -0.003450
    153 H60         -8.3360     5.7300    -0.2730 ha         0 135       0.136000
    154 H61         -8.7280     8.1260    -0.1220 ha         0 135       0.136250
    155 H62         -6.8450     9.7180    -0.1980 ha         0 135       0.139000
    156 H63         -4.5540     8.8800    -0.3870 ha         0 135       0.164000
    157 H64         -3.5560     5.4790    -0.4040 hn         0 135       0.337250
    158 H65          1.8940     8.4760     1.1270 ha         0 135       0.161500
    159 H66         -0.1550     9.4270     2.1650 ha         0 135       0.166000
    160 H67         -2.3650     8.8230     1.2100 ha         0 135       0.161500
    161 H68          3.1170     5.5770    -0.0340 hn         0 135       0.337250
    162 H69          3.3690     9.0140    -1.0020 ha         0 135       0.164000
    163 H70          5.4680    10.2640    -1.2020 ha         0 135       0.139000
    164 H71          7.6290     9.1060    -0.9900 ha         0 135       0.136250
    165 H72          7.7190     6.7050    -0.6240 ha         0 135       0.136000
    166 H73          7.4280     5.3340     0.3260 h4         0 135      -0.003450
@<TRIPOS>BOND
     1     1     2 1   
     2     1    93 1   
     3     1    94 1   
     4     1    95 1   
     5     2     3 1   
     6     2    96 1   
     7     2    97 1   
     8     3     4 1   
     9     3    98 1   
    10     3    99 1   
    11     4     5 2   
    12     4     8 1   
    13     5     6 1   
    14     5    92 1   
    15     6     7 1   
    16     6   100 1   
    17     7     8 2   
    18     7    10 1   
    19     8     9 1   
    20     9   101 1   
    21     9   102 1   
    22     9   103 1   
    23    10    11 2   
    24    10    18 1   
    25    11    12 1   
    26    11    13 1   
    27    12   104 1   
    28    12   105 1   
    29    12   106 1   
    30    13    14 1   
    31    13    17 2   
    32    14    15 1   
    33    14   107 1   
    34    14   108 1   
    35    15    16 1   
    36    15   109 1   
    37    15   110 1   
    38    16   111 1   
    39    16   112 1   
    40    16   113 1   
    41    17    18 1   
    42    17    19 1   
    43    18   114 1   
    44    19    20 2   
    45    19   115 1   
    46    20    21 1   
    47    21    22 ar  
    48    21    26 ar  
    49    22    23 ar  
    50    22   116 1   
    51    23    24 ar  
    52    23   117 1   
    53    24    25 ar  
    54    24   118 1   
    55    25    26 ar  
    56    25   119 1   
    57    26    27 1   
    58    27    28 1   
    59    27   120 1   
    60    28    29 2   
    61    28    30 1   
    62    30    31 ar  
    63    30    35 ar  
    64    31    32 ar  
    65    32    33 ar  
    66    32    36 1   
    67    33    34 ar  
    68    33   121 1   
    69    34    35 ar  
    70    34   122 1   
    71    35   123 1   
    72    36    37 2   
    73    36    38 1   
    74    38    39 1   
    75    38   124 1   
    76    39    40 ar  
    77    39    44 ar  
    78    40    41 ar  
    79    40   125 1   
    80    41    42 ar  
    81    41   126 1   
    82    42    43 ar  
    83    42   127 1   
    84    43    44 ar  
    85    43   128 1   
    86    44    45 1   
    87    45    46 2   
    88    46    47 1   
    89    46   129 1   
    90    47    48 2   
    91    47    55 1   
    92    48    49 1   
    93    48    52 1   
    94    49    50 1   
    95    49   130 1   
    96    49   131 1   
    97    50    51 1   
    98    50   132 1   
    99    50   133 1   
   100    51   134 1   
   101    51   135 1   
   102    51   136 1   
   103    52    53 1   
   104    52    54 2   
   105    53   137 1   
   106    53   138 1   
   107    53   139 1   
   108    54    55 1   
   109    54    56 1   
   110    55   140 1   
   111    56    57 2   
   112    56    64 1   
   113    57    58 1   
   114    57    59 1   
   115    58   141 1   
   116    58   142 1   
   117    58   143 1   
   118    59    60 1   
   119    59    63 2   
   120    60    61 1   
   121    60   144 1   
   122    60   145 1   
   123    61    62 1   
   124    61   146 1   
   125    61   147 1   
   126    62   148 1   
   127    62   149 1   
   128    62   150 1   
   129    63    64 1   
   130    63    65 1   
   131    64   151 1   
   132    65    66 2   
   133    65   152 1   
   134    66    67 1   
   135    67    68 ar  
   136    67    72 ar  
   137    68    69 ar  
   138    68   153 1   
   139    69    70 ar  
   140    69   154 1   
   141    70    71 ar  
   142    70   155 1   
   143    71    72 ar  
   144    71   156 1   
   145    72    73 1   
   146    73    74 1   
   147    73   157 1   
   148    74    75 2   
   149    74    76 1   
   150    76    77 ar  
   151    76    81 ar  
   152    77    78 ar  
   153    78    79 ar  
   154    78    82 1   
   155    79    80 ar  
   156    79   158 1   
   157    80    81 ar  
   158    80   159 1   
   159    81   160 1   
   160    82    83 2   
   161    82    84 1   
   162    84    85 1   
   163    84   161 1   
   164    85    86 ar  
   165    85    90 ar  
   166    86    87 ar  
   167    86   162 1   
   168    87    88 ar  
   169    87   163 1   
   170    88    89 ar  
   171    88   164 1   
   172    89    90 ar  
   173    89   165 1   
   174    90    91 1   
   175    91    92 2   
   176    92   166 1   
@<TRIPOS>SUBSTRUCTURE
     1 135         1 TEMP              0 ****  ****    0 ROOT
