@<TRIPOS>MOLECULE
123
  108   117     1     0     0
SMALL
bcc


@<TRIPOS>ATOM
      1 O1           2.7520    -1.0400    -2.8410 o          1 123      -0.650833
      2 C1           3.6040    -1.0290    -1.9680 c          1 123       0.776167
      3 N1           3.9990    -2.1170    -1.1940 n          1 123      -0.438967
      4 C2           3.2820    -3.3790    -1.2000 c3         1 123       0.133300
      5 C3           2.3510    -3.5500    -0.0230 ca         1 123      -0.119300
      6 C4           2.5080    -4.6320     0.8550 ca         1 123      -0.115667
      7 C5           1.6330    -4.8090     1.9280 ca         1 123      -0.135667
      8 C6           0.5900    -3.9080     2.1360 ca         1 123      -0.115667
      9 C7           0.4130    -2.8180     1.2750 ca         1 123      -0.119300
     10 C8           1.2970    -2.6490     0.1970 ca         1 123      -0.106333
     11 C9          -0.7120    -1.8430     1.5030 c3         1 123       0.133300
     12 N2          -2.0380    -2.3280     1.1500 n          1 123      -0.438967
     13 C10         -3.1180    -1.5670     1.6410 c          1 123       0.776167
     14 O2          -3.0900    -0.8240     2.6100 o          1 123      -0.650833
     15 N3          -4.2060    -1.7510     0.7950 n          1 123      -0.438967
     16 C11         -5.3890    -0.9100     0.8280 c3         1 123       0.133300
     17 C12         -5.4080     0.1720    -0.2330 ca         1 123      -0.119300
     18 C13         -6.6220     0.5950    -0.7850 ca         1 123      -0.115667
     19 C14         -6.6500     1.6080    -1.7470 ca         1 123      -0.135667
     20 C15         -5.4650     2.2170    -2.1640 ca         1 123      -0.115667
     21 C16         -4.2380     1.8330    -1.6130 ca         1 123      -0.119300
     22 C17         -4.2290     0.8130    -0.6480 ca         1 123      -0.106333
     23 C18         -2.9460     2.4600    -2.0850 c3         1 123       0.133300
     24 N4          -2.0950     2.9660    -1.0240 n          1 123      -0.438967
     25 C19         -1.1260     2.1990    -0.3710 c          1 123       0.776167
     26 O3          -0.8180     1.0490    -0.6360 o          1 123      -0.650833
     27 N5          -0.5730     3.0020     0.6400 n          1 123      -0.438967
     28 C20          0.6090     2.5850     1.3690 c3         1 123       0.133300
     29 C21          1.9060     2.9170     0.6710 ca         1 123      -0.119300
     30 C22          2.6510     4.0470     1.0290 ca         1 123      -0.115667
     31 C23          3.8570     4.3330     0.3880 ca         1 123      -0.135667
     32 C24          4.3360     3.4890    -0.6150 ca         1 123      -0.115667
     33 C25          3.6100     2.3520    -0.9900 ca         1 123      -0.119300
     34 C26          2.3900     2.0850    -0.3500 ca         1 123      -0.106333
     35 C27          4.1280     1.4180    -2.0570 c3         1 123       0.133300
     36 N6           4.3440     0.0730    -1.5580 n          1 123      -0.438967
     37 C28          5.2710    -0.2560    -0.4880 c3         1 123       0.077200
     38 C29          6.7290    -0.1290    -0.9290 c3         1 123      -0.078067
     39 C30          7.6930    -0.6660     0.1280 c3         1 123      -0.077400
     40 C31          7.2040    -1.9390     0.8240 c3         1 123      -0.077400
     41 C32          6.0910    -2.6370     0.0530 c3         1 123      -0.078067
     42 C33          4.8890    -1.7070    -0.1190 c3         1 123       0.077200
     43 C34         -0.9510     4.3900     0.4030 c3         1 123       0.077200
     44 C35         -0.9780     5.3110     1.6200 c3         1 123      -0.078067
     45 C36         -2.1910     5.1030     2.5150 c3         1 123      -0.077400
     46 C37         -3.4750     5.2170     1.7070 c3         1 123      -0.077400
     47 C38         -3.5100     4.1630     0.6120 c3         1 123      -0.078067
     48 C39         -2.3000     4.2320    -0.3330 c3         1 123       0.077200
     49 C40         -3.8850    -2.6250    -0.3140 c3         1 123       0.077200
     50 C41         -4.6430    -3.9480    -0.2170 c3         1 123      -0.078067
     51 C42         -4.2030    -4.9360    -1.2940 c3         1 123      -0.077400
     52 C43         -2.7130    -4.8570    -1.6180 c3         1 123      -0.077400
     53 C44         -1.9030    -4.2370    -0.4830 c3         1 123      -0.078067
     54 C45         -2.3540    -2.8000    -0.2000 c3         1 123       0.077200
     55 H1           4.0320    -4.1770    -1.2200 h1         1 123       0.072867
     56 H2           2.6990    -3.4680    -2.1250 h1         1 123       0.072867
     57 H3           3.3120    -5.3500     0.7060 ha         1 123       0.133000
     58 H4           1.7600    -5.6530     2.6000 ha         1 123       0.132667
     59 H5          -0.0930    -4.0580     2.9690 ha         1 123       0.133000
     60 H6           1.1550    -1.8100    -0.4870 ha         1 123       0.160000
     61 H7          -0.5360    -0.9160     0.9460 h1         1 123       0.072867
     62 H8          -0.7080    -1.5550     2.5620 h1         1 123       0.072867
     63 H9          -6.2540    -1.5720     0.7050 h1         1 123       0.072867
     64 H10         -5.4680    -0.4310     1.8100 h1         1 123       0.072867
     65 H11         -7.5580     0.1370    -0.4720 ha         1 123       0.133000
     66 H12         -7.5990     1.9210    -2.1750 ha         1 123       0.132667
     67 H13         -5.5090     2.9960    -2.9220 ha         1 123       0.133000
     68 H14         -3.2800     0.5080    -0.2130 ha         1 123       0.160000
     69 H15         -3.1420     3.2940    -2.7690 h1         1 123       0.072867
     70 H16         -2.3890     1.7010    -2.6480 h1         1 123       0.072867
     71 H17          0.5800     3.0340     2.3670 h1         1 123       0.072867
     72 H18          0.5600     1.5000     1.5250 h1         1 123       0.072867
     73 H19          2.3020     4.7100     1.8170 ha         1 123       0.133000
     74 H20          4.4290     5.2120     0.6740 ha         1 123       0.132667
     75 H21          5.2830     3.7220    -1.0980 ha         1 123       0.133000
     76 H22          1.8150     1.2060    -0.6450 ha         1 123       0.160000
     77 H23          5.0810     1.7760    -2.4620 h1         1 123       0.072867
     78 H24          3.4140     1.3990    -2.8890 h1         1 123       0.072867
     79 H25          5.0830     0.3990     0.3700 h1         1 123       0.057700
     80 H26          6.9750     0.9160    -1.1500 hc         1 123       0.053367
     81 H27          6.8820    -0.6780    -1.8680 hc         1 123       0.053367
     82 H28          7.8740     0.1040     0.8880 hc         1 123       0.043950
     83 H29          8.6630    -0.8560    -0.3470 hc         1 123       0.043950
     84 H30          6.8360    -1.6800     1.8250 hc         1 123       0.043950
     85 H31          8.0460    -2.6240     0.9730 hc         1 123       0.043950
     86 H32          5.7840    -3.5470     0.5810 hc         1 123       0.053367
     87 H33          6.4710    -2.9630    -0.9240 hc         1 123       0.053367
     88 H34          4.3020    -1.6820     0.8080 h1         1 123       0.057700
     89 H35         -0.2080     4.7790    -0.3080 h1         1 123       0.057700
     90 H36         -0.9970     6.3480     1.2600 hc         1 123       0.053367
     91 H37         -0.0660     5.2140     2.2160 hc         1 123       0.053367
     92 H38         -2.1910     5.8540     3.3130 hc         1 123       0.043950
     93 H39         -2.1360     4.1200     2.9990 hc         1 123       0.043950
     94 H40         -4.3390     5.0870     2.3700 hc         1 123       0.043950
     95 H41         -3.5560     6.2170     1.2650 hc         1 123       0.043950
     96 H42         -4.4340     4.2730     0.0330 hc         1 123       0.053367
     97 H43         -3.5630     3.1760     1.0900 hc         1 123       0.053367
     98 H44         -2.4310     5.0370    -1.0650 h1         1 123       0.057700
     99 H45         -4.1270    -2.1290    -1.2620 h1         1 123       0.057700
    100 H46         -5.7250    -3.7820    -0.2920 hc         1 123       0.053367
    101 H47         -4.4790    -4.3970     0.7720 hc         1 123       0.053367
    102 H48         -4.4570    -5.9510    -0.9660 hc         1 123       0.043950
    103 H49         -4.7740    -4.7620    -2.2140 hc         1 123       0.043950
    104 H50         -2.3320    -5.8580    -1.8500 hc         1 123       0.043950
    105 H51         -2.5710    -4.2550    -2.5250 hc         1 123       0.043950
    106 H52         -0.8450    -4.2540    -0.7610 hc         1 123       0.053367
    107 H53         -2.0000    -4.8580     0.4170 hc         1 123       0.053367
    108 H54         -1.8780    -2.1070    -0.9070 h1         1 123       0.057700
@<TRIPOS>BOND
     1     1     2 2   
     2     2     3 1   
     3     2    36 1   
     4     3     4 1   
     5     3    42 1   
     6     4     5 1   
     7     4    55 1   
     8     4    56 1   
     9     5     6 ar  
    10     5    10 ar  
    11     6     7 ar  
    12     6    57 1   
    13     7     8 ar  
    14     7    58 1   
    15     8     9 ar  
    16     8    59 1   
    17     9    10 ar  
    18     9    11 1   
    19    10    60 1   
    20    11    12 1   
    21    11    61 1   
    22    11    62 1   
    23    12    13 1   
    24    12    54 1   
    25    13    14 2   
    26    13    15 1   
    27    15    16 1   
    28    15    49 1   
    29    16    17 1   
    30    16    63 1   
    31    16    64 1   
    32    17    18 ar  
    33    17    22 ar  
    34    18    19 ar  
    35    18    65 1   
    36    19    20 ar  
    37    19    66 1   
    38    20    21 ar  
    39    20    67 1   
    40    21    22 ar  
    41    21    23 1   
    42    22    68 1   
    43    23    24 1   
    44    23    69 1   
    45    23    70 1   
    46    24    25 1   
    47    24    48 1   
    48    25    26 2   
    49    25    27 1   
    50    27    28 1   
    51    27    43 1   
    52    28    29 1   
    53    28    71 1   
    54    28    72 1   
    55    29    30 ar  
    56    29    34 ar  
    57    30    31 ar  
    58    30    73 1   
    59    31    32 ar  
    60    31    74 1   
    61    32    33 ar  
    62    32    75 1   
    63    33    34 ar  
    64    33    35 1   
    65    34    76 1   
    66    35    36 1   
    67    35    77 1   
    68    35    78 1   
    69    36    37 1   
    70    37    38 1   
    71    37    42 1   
    72    37    79 1   
    73    38    39 1   
    74    38    80 1   
    75    38    81 1   
    76    39    40 1   
    77    39    82 1   
    78    39    83 1   
    79    40    41 1   
    80    40    84 1   
    81    40    85 1   
    82    41    42 1   
    83    41    86 1   
    84    41    87 1   
    85    42    88 1   
    86    43    44 1   
    87    43    48 1   
    88    43    89 1   
    89    44    45 1   
    90    44    90 1   
    91    44    91 1   
    92    45    46 1   
    93    45    92 1   
    94    45    93 1   
    95    46    47 1   
    96    46    94 1   
    97    46    95 1   
    98    47    48 1   
    99    47    96 1   
   100    47    97 1   
   101    48    98 1   
   102    49    50 1   
   103    49    54 1   
   104    49    99 1   
   105    50    51 1   
   106    50   100 1   
   107    50   101 1   
   108    51    52 1   
   109    51   102 1   
   110    51   103 1   
   111    52    53 1   
   112    52   104 1   
   113    52   105 1   
   114    53    54 1   
   115    53   106 1   
   116    53   107 1   
   117    54   108 1   
@<TRIPOS>SUBSTRUCTURE
     1 123         1 TEMP              0 ****  ****    0 ROOT
