@<TRIPOS>MOLECULE
PYR
  188   210     1     0     0
SMALL
bcc


@<TRIPOS>ATOM
      1 H           -9.1600     0.1460    -4.6260 ha         0 PYR       0.239000
      2 C           -8.0780     0.3890    -4.5700 c2         0 PYR      -0.113000
      3 C1          -7.6220     1.5850    -5.1460 c2         0 PYR       0.025000
      4 H1          -8.3300     2.2840    -5.6530 h4         0 PYR       0.245000
      5 N           -6.2940     1.9220    -5.1160 na         0 PYR      -0.034000
      6 C2          -5.3980     1.0720    -4.5240 c2         0 PYR      -0.021000
      7 H2          -4.3350     1.3840    -4.5430 h4         0 PYR       0.188000
      8 C3          -5.8030    -0.1350    -3.9280 c2         0 PYR      -0.072000
      9 C4          -7.1710    -0.4780    -3.9590 c2         0 PYR      -0.004000
     10 H3          -7.5230    -1.4310    -3.5190 ha         0 PYR       0.207000
     11 C5          -4.8140    -1.0520    -3.3420 ca         0 PYR      -0.036000
     12 C6          -4.7790    -1.3280    -1.9590 ca         0 PYR       0.008000
     13 C7          -5.6530    -0.6700    -1.0240 ca         0 PYR      -0.096000
     14 H4          -6.4310     0.0010    -1.4270 ha         0 PYR       0.159000
     15 C8          -5.5510    -0.8770     0.3130 ca         0 PYR      -0.114000
     16 H5          -6.2530    -0.3840     1.0080 ha         0 PYR       0.165000
     17 C9          -4.5790    -1.7850     0.8630 ca         0 PYR       0.028000
     18 C10         -4.4050    -1.9500     2.2550 ca         0 PYR      -0.066000
     19 C11         -3.5590    -2.9620     2.7240 ca         0 PYR      -0.067000
     20 H6          -3.4790    -3.1330     3.8120 ha         0 PYR       0.156000
     21 C12         -2.8010    -3.7580     1.8540 ca         0 PYR      -0.070000
     22 C13         -1.8600    -4.7030     2.4700 c2         0 PYR       0.077000
     23 C14         -1.7910    -6.0730     2.1790 c2         0 PYR      -0.148500
     24 H7          -2.5030    -6.5520     1.4790 ha         0 PYR       0.195000
     25 C15         -0.8250    -6.8840     2.8050 c2         0 PYR       0.008500
     26 H8          -0.7670    -7.9770     2.5880 h4         0 PYR       0.224500
     27 N1           0.0660    -6.3690     3.7060 na         0 PYR      -0.029000
     28 C16         -0.0370    -5.0480     4.0490 c2         0 PYR       0.008500
     29 H9           0.6600    -4.6820     4.8330 h4         0 PYR       0.224500
     30 C17         -0.9720    -4.2070     3.4500 c2         0 PYR      -0.148500
     31 H10         -1.0140    -3.1510     3.7610 ha         0 PYR       0.195000
     32 C18          1.1230    -7.2050     4.3230 c3         0 PYR      -0.031000
     33 H11          0.7320    -7.5490     5.3300 h1         0 PYR       0.177000
     34 H12          1.2710    -8.1200     3.6730 h1         0 PYR       0.177000
     35 C19          2.4260    -6.4770     4.4860 ca         0 PYR      -0.123000
     36 C20          3.3370    -6.4150     3.4240 ca         0 PYR      -0.099000
     37 H13          3.1170    -6.9240     2.4710 ha         0 PYR       0.167000
     38 C21          4.5540    -5.7510     3.5790 ca         0 PYR      -0.099500
     39 H14          5.2780    -5.7500     2.7480 ha         0 PYR       0.168000
     40 C22          4.8740    -5.1350     4.7960 ca         0 PYR      -0.120000
     41 C23          3.9930    -5.2530     5.8780 ca         0 PYR      -0.099500
     42 H15          4.2670    -4.8540     6.8720 ha         0 PYR       0.168000
     43 C24          2.7760    -5.9230     5.7240 ca         0 PYR      -0.099000
     44 H16          2.1150    -6.0450     6.6000 ha         0 PYR       0.167000
     45 C25          6.1800    -4.4100     4.9610 c3         0 PYR      -0.032000
     46 H17          6.3910    -4.2000     6.0540 h1         0 PYR       0.180000
     47 H18          7.0270    -5.0420     4.5550 h1         0 PYR       0.180000
     48 N2           6.1880    -3.1090     4.2490 na         0 PYR      -0.028000
     49 C26          5.0670    -2.3210     4.2890 c2         0 PYR       0.014500
     50 H19          4.2580    -2.6460     4.9770 h4         0 PYR       0.227000
     51 C27          4.9430    -1.1850     3.4920 c2         0 PYR      -0.149000
     52 H20          4.0130    -0.5980     3.5430 ha         0 PYR       0.196000
     53 C28          5.9880    -0.8100     2.6210 c2         0 PYR       0.070000
     54 C29          7.1810    -1.5460     2.6940 c2         0 PYR      -0.149000
     55 H21          8.0830    -1.2480     2.1250 ha         0 PYR       0.196000
     56 C30          7.2580    -2.6940     3.5070 c2         0 PYR       0.014500
     57 H22          8.1940    -3.3000     3.5600 h4         0 PYR       0.227000
     58 C31          5.7350     0.2000     1.5860 ca         0 PYR      -0.050000
     59 C32          6.1340    -0.1180     0.2810 ca         0 PYR      -0.069000
     60 H23          6.7820    -1.0000     0.1200 ha         0 PYR       0.173000
     61 C33          5.6960     0.6410    -0.8180 ca         0 PYR      -0.021000
     62 C34          4.8880     1.7900    -0.6160 ca         0 PYR       0.023000
     63 C35          4.4180     2.6170    -1.6950 ca         0 PYR      -0.120000
     64 H24          4.8270     2.4650    -2.7080 ha         0 PYR       0.156000
     65 C36          3.5120     3.6060    -1.4870 ca         0 PYR      -0.090000
     66 H25          3.1930     4.2530    -2.3220 ha         0 PYR       0.166000
     67 C37          2.9840     3.8790    -0.1770 ca         0 PYR       0.015000
     68 C38          1.9380     4.8040     0.0330 ca         0 PYR      -0.055000
     69 C39          1.5490     5.1160     1.3400 ca         0 PYR      -0.066000
     70 H26          0.7620     5.8750     1.5010 ha         0 PYR       0.157000
     71 C40          2.1020     4.4590     2.4490 ca         0 PYR      -0.050000
     72 C41          1.4650     4.6990     3.7500 c2         0 PYR       0.070000
     73 C42          1.1430     5.9870     4.2070 c2         0 PYR      -0.148000
     74 H27          1.5300     6.8920     3.7000 ha         0 PYR       0.194000
     75 C43          0.3210     6.1550     5.3360 c2         0 PYR       0.013000
     76 H28          0.0530     7.1740     5.7050 h4         0 PYR       0.226500
     77 N3          -0.1810     5.0800     6.0150 na         0 PYR      -0.028000
     78 C44          0.2170     3.8220     5.6450 c2         0 PYR       0.013000
     79 H29         -0.1520     2.9820     6.2710 h4         0 PYR       0.226500
     80 C45          1.0300     3.6090     4.5320 c2         0 PYR      -0.148000
     81 H30          1.3130     2.5780     4.2670 ha         0 PYR       0.194000
     82 C46         -1.1720     5.2340     7.1070 c3         0 PYR      -0.032000
     83 H31         -0.6390     5.0050     8.0810 h1         0 PYR       0.178000
     84 H32         -1.5020     6.3160     7.1370 h1         0 PYR       0.178000
     85 C47         -2.3610     4.3330     6.9300 ca         0 PYR      -0.120000
     86 C48         -2.4100     3.0930     7.5790 ca         0 PYR      -0.099500
     87 H33         -1.5980     2.7880     8.2620 ha         0 PYR       0.166500
     88 C49         -3.5150     2.2570     7.4170 ca         0 PYR      -0.099500
     89 H34         -3.5540     1.3020     7.9670 ha         0 PYR       0.166500
     90 C50         -4.5850     2.6500     6.6030 ca         0 PYR      -0.117000
     91 C51         -4.5640     3.9180     6.0080 ca         0 PYR      -0.099500
     92 H35         -5.4400     4.2850     5.4450 ha         0 PYR       0.166500
     93 C52         -3.4590     4.7550     6.1700 ca         0 PYR      -0.099500
     94 H36         -3.4780     5.7650     5.7270 ha         0 PYR       0.166500
     95 C53         -5.7760     1.7520     6.4300 c3         0 PYR      -0.032000
     96 H37         -5.9660     1.1690     7.3800 h1         0 PYR       0.177500
     97 H38         -6.7040     2.3620     6.2040 h1         0 PYR       0.177500
     98 N4          -5.6000     0.7870     5.3190 na         0 PYR      -0.031000
     99 C54         -5.1680     1.2400     4.1000 c2         0 PYR       0.011000
    100 H39         -5.0730     2.3410     3.9850 h4         0 PYR       0.225000
    101 C55         -4.8510     0.3630     3.0630 c2         0 PYR      -0.151000
    102 H40         -4.4960     0.7750     2.1050 ha         0 PYR       0.196500
    103 C56         -4.9690    -1.0300     3.2490 c2         0 PYR       0.078000
    104 C57         -5.5180    -1.4720     4.4640 c2         0 PYR      -0.151000
    105 H41         -5.7280    -2.5440     4.6440 ha         0 PYR       0.196500
    106 C58         -5.8230    -0.5510     5.4820 c2         0 PYR       0.011000
    107 H42         -6.2550    -0.8920     6.4530 h4         0 PYR       0.225000
    108 C59          3.1340     3.5160     2.2550 ca         0 PYR       0.022000
    109 C60          3.8040     2.8640     3.3510 ca         0 PYR      -0.099000
    110 H43          3.6260     3.2470     4.3720 ha         0 PYR       0.172000
    111 C61          4.6740     1.8430     3.1430 ca         0 PYR      -0.113000
    112 H44          5.2140     1.3870     3.9920 ha         0 PYR       0.175000
    113 C62          4.9790     1.3700     1.8170 ca         0 PYR       0.033000
    114 C63          4.4990     2.1270     0.7110 ca         0 PYR      -0.017000
    115 C64          3.5510     3.1940     0.9320 ca         0 PYR      -0.019000
    116 C65          1.1470     5.3540    -1.0740 c2         0 PYR       0.071000
    117 C66          0.7920     6.7080    -1.1660 c2         0 PYR      -0.147000
    118 H45          1.2180     7.4650    -0.4800 ha         0 PYR       0.195500
    119 C67         -0.1120     7.1370    -2.1550 c2         0 PYR       0.009000
    120 H46         -0.4010     8.2120    -2.2410 h4         0 PYR       0.225500
    121 N5          -0.6660     6.2580    -3.0450 na         0 PYR      -0.027000
    122 C68         -0.2690     4.9480    -3.0110 c2         0 PYR       0.009000
    123 H47         -0.6980     4.2780    -3.7860 h4         0 PYR       0.225500
    124 C69          0.6230     4.4790    -2.0480 c2         0 PYR      -0.147000
    125 H48          0.9030     3.4130    -2.0540 ha         0 PYR       0.195500
    126 C70         -1.6680     6.7060    -4.0390 c3         0 PYR      -0.032000
    127 H49         -2.1930     7.6140    -3.6140 h1         0 PYR       0.175500
    128 H50         -1.0960     7.0310    -4.9620 h1         0 PYR       0.175500
    129 C71         -2.6820     5.6610    -4.4000 ca         0 PYR      -0.129000
    130 C72         -3.8530     5.5160    -3.6450 ca         0 PYR      -0.098500
    131 H51         -4.0160     6.1310    -2.7450 ha         0 PYR       0.164000
    132 C73         -4.8590     4.6430    -4.0640 ca         0 PYR      -0.099500
    133 H52         -5.7980     4.5870    -3.4870 ha         0 PYR       0.166000
    134 C74         -4.7070     3.9010    -5.2410 ca         0 PYR      -0.111000
    135 C75         -3.5290     4.0340    -5.9870 ca         0 PYR      -0.099500
    136 H53         -3.4060     3.4930    -6.9420 ha         0 PYR       0.166000
    137 C76         -2.5250     4.9100    -5.5720 ca         0 PYR      -0.098500
    138 H54         -1.6330     5.0470    -6.2080 ha         0 PYR       0.164000
    139 C77         -5.8560     3.1380    -5.8290 c3         0 PYR      -0.037000
    140 H55         -5.6050     2.8150    -6.8870 h1         0 PYR       0.172000
    141 H56         -6.7460     3.8410    -5.8860 h1         0 PYR       0.172000
    142 N6           5.9650     0.1320    -2.1420 na         0 PYR      -0.028000
    143 C78          5.4150    -1.0920    -2.4630 c2         0 PYR       0.005000
    144 H57          4.8970    -1.6350    -1.6490 h4         0 PYR       0.208500
    145 C79          5.5030    -1.6120    -3.7450 c2         0 PYR      -0.150500
    146 H58          5.0640    -2.6020    -3.9640 ha         0 PYR       0.214000
    147 C80          6.1580    -0.8900    -4.7680 c2         0 PYR       0.102000
    148 C81          6.7960     0.3090    -4.4010 c2         0 PYR      -0.150500
    149 H59          7.3990     0.8810    -5.1370 ha         0 PYR       0.214000
    150 C82          6.6940     0.8020    -3.0920 c2         0 PYR       0.005000
    151 H60          7.2000     1.7450    -2.7840 h4         0 PYR       0.208500
    152 C83          6.1540    -1.3990    -6.1660 c3         0 PYR      -0.139000
    153 H61          6.3440    -0.5530    -6.8890 hc         0 PYR       0.174000
    154 H62          7.0280    -2.1100    -6.2890 hc         0 PYR       0.174000
    155 C84          4.8780    -2.0940    -6.5220 ca         0 PYR      -0.063000
    156 C85          3.8150    -1.3690    -7.0790 ca         0 PYR      -0.121000
    157 H63          3.9390    -0.3000    -7.3140 ha         0 PYR       0.165500
    158 C86          2.6130    -2.0040    -7.3880 ca         0 PYR      -0.094500
    159 H64          1.8040    -1.4270    -7.8640 ha         0 PYR       0.161000
    160 C87          2.4520    -3.3730    -7.1390 ca         0 PYR      -0.151000
    161 C88          3.5350    -4.1130    -6.6480 ca         0 PYR      -0.094500
    162 H65          3.4580    -5.2080    -6.5320 ha         0 PYR       0.161000
    163 C89          4.7400    -3.4770    -6.3460 ca         0 PYR      -0.121000
    164 H66          5.5980    -4.0820    -6.0050 ha         0 PYR       0.165500
    165 C90          1.1630    -4.0580    -7.4750 c3         0 PYR      -0.026000
    166 H67          0.7970    -3.7120    -8.4890 h1         0 PYR       0.174000
    167 H68          1.3040    -5.1820    -7.5120 h1         0 PYR       0.174000
    168 N7           0.0830    -3.7880    -6.4940 na         0 PYR      -0.025000
    169 C91          0.3910    -3.4340    -5.2080 c2         0 PYR       0.008500
    170 H69          1.4680    -3.4240    -4.9390 h4         0 PYR       0.225000
    171 C92         -0.5950    -3.0930    -4.2830 c2         0 PYR      -0.150000
    172 H70         -0.2930    -2.7980    -3.2660 ha         0 PYR       0.192000
    173 C93         -1.9550    -3.1160    -4.6490 c2         0 PYR       0.069000
    174 C94         -2.2630    -3.5470    -5.9500 c2         0 PYR      -0.150000
    175 H71         -3.3110    -3.6490    -6.2910 ha         0 PYR       0.192000
    176 C95         -1.2340    -3.8750    -6.8520 c2         0 PYR       0.008500
    177 H72         -1.4650    -4.2150    -7.8900 h4         0 PYR       0.225000
    178 C96         -2.9700    -2.6130    -3.7160 ca         0 PYR      -0.054000
    179 C97         -3.9060    -1.6870    -4.1970 ca         0 PYR      -0.075000
    180 H73         -3.9320    -1.4590    -5.2770 ha         0 PYR       0.160000
    181 C98         -2.9840    -2.9690    -2.3500 ca         0 PYR       0.008000
    182 C99         -2.1630    -4.0250    -1.8180 ca         0 PYR      -0.099000
    183 H74         -1.5900    -4.6450    -2.5290 ha         0 PYR       0.160000
    184 C100        -2.1280    -4.3020    -0.4900 ca         0 PYR      -0.118000
    185 H75         -1.5090    -5.1340    -0.1170 ha         0 PYR       0.149000
    186 C101        -2.9040    -3.5520     0.4610 ca         0 PYR       0.029000
    187 C102        -3.7870    -2.5510    -0.0370 ca         0 PYR      -0.023000
    188 C103        -3.8550    -2.2870    -1.4550 ca         0 PYR      -0.017000
@<TRIPOS>BOND
     1     1     2 1   
     2     2     3 1   
     3     2     9 1   
     4     3     4 1   
     5     3     5 1   
     6     5     6 1   
     7     5   139 1   
     8     6     7 1   
     9     6     8 1   
    10     8     9 1   
    11     8    11 1   
    12     9    10 1   
    13    11    12 1   
    14    11   179 1   
    15    12    13 1   
    16    12   188 1   
    17    13    14 1   
    18    13    15 1   
    19    15    16 1   
    20    15    17 1   
    21    17    18 1   
    22    17   187 1   
    23    18    19 1   
    24    18   103 1   
    25    19    20 1   
    26    19    21 1   
    27    21    22 1   
    28    21   186 1   
    29    22    23 1   
    30    22    30 1   
    31    23    24 1   
    32    23    25 1   
    33    25    26 1   
    34    25    27 1   
    35    27    28 1   
    36    27    32 1   
    37    28    29 1   
    38    28    30 1   
    39    30    31 1   
    40    32    33 1   
    41    32    34 1   
    42    32    35 1   
    43    35    36 1   
    44    35    43 1   
    45    36    37 1   
    46    36    38 1   
    47    38    39 1   
    48    38    40 1   
    49    40    41 1   
    50    40    45 1   
    51    41    42 1   
    52    41    43 1   
    53    43    44 1   
    54    45    46 1   
    55    45    47 1   
    56    45    48 1   
    57    48    49 1   
    58    48    56 1   
    59    49    50 1   
    60    49    51 1   
    61    51    52 1   
    62    51    53 1   
    63    53    54 1   
    64    53    58 1   
    65    54    55 1   
    66    54    56 1   
    67    56    57 1   
    68    58    59 1   
    69    58   113 1   
    70    59    60 1   
    71    59    61 1   
    72    61    62 1   
    73    61   142 1   
    74    62    63 1   
    75    62   114 1   
    76    63    64 1   
    77    63    65 1   
    78    65    66 1   
    79    65    67 1   
    80    67    68 1   
    81    67   115 1   
    82    68    69 1   
    83    68   116 1   
    84    69    70 1   
    85    69    71 1   
    86    71    72 1   
    87    71   108 1   
    88    72    73 1   
    89    72    80 1   
    90    73    74 1   
    91    73    75 1   
    92    75    76 1   
    93    75    77 1   
    94    77    78 1   
    95    77    82 1   
    96    78    79 1   
    97    78    80 1   
    98    80    81 1   
    99    82    83 1   
   100    82    84 1   
   101    82    85 1   
   102    85    86 1   
   103    85    93 1   
   104    86    87 1   
   105    86    88 1   
   106    88    89 1   
   107    88    90 1   
   108    90    91 1   
   109    90    95 1   
   110    91    92 1   
   111    91    93 1   
   112    93    94 1   
   113    95    96 1   
   114    95    97 1   
   115    95    98 1   
   116    98    99 1   
   117    98   106 1   
   118    99   100 1   
   119    99   101 1   
   120   101   102 1   
   121   101   103 1   
   122   103   104 1   
   123   104   105 1   
   124   104   106 1   
   125   106   107 1   
   126   108   109 1   
   127   108   115 1   
   128   109   110 1   
   129   109   111 1   
   130   111   112 1   
   131   111   113 1   
   132   113   114 1   
   133   114   115 1   
   134   116   117 1   
   135   116   124 1   
   136   117   118 1   
   137   117   119 1   
   138   119   120 1   
   139   119   121 1   
   140   121   122 1   
   141   121   126 1   
   142   122   123 1   
   143   122   124 1   
   144   124   125 1   
   145   126   127 1   
   146   126   128 1   
   147   126   129 1   
   148   129   130 1   
   149   129   137 1   
   150   130   131 1   
   151   130   132 1   
   152   132   133 1   
   153   132   134 1   
   154   134   135 1   
   155   134   139 1   
   156   135   136 1   
   157   135   137 1   
   158   137   138 1   
   159   139   140 1   
   160   139   141 1   
   161   142   143 1   
   162   142   150 1   
   163   143   144 1   
   164   143   145 1   
   165   145   146 1   
   166   145   147 1   
   167   147   148 1   
   168   147   152 1   
   169   148   149 1   
   170   148   150 1   
   171   150   151 1   
   172   152   153 1   
   173   152   154 1   
   174   152   155 1   
   175   155   156 1   
   176   155   163 1   
   177   156   157 1   
   178   156   158 1   
   179   158   159 1   
   180   158   160 1   
   181   160   161 1   
   182   160   165 1   
   183   161   162 1   
   184   161   163 1   
   185   163   164 1   
   186   165   166 1   
   187   165   167 1   
   188   165   168 1   
   189   168   169 1   
   190   168   176 1   
   191   169   170 1   
   192   169   171 1   
   193   171   172 1   
   194   171   173 1   
   195   173   174 1   
   196   173   178 1   
   197   174   175 1   
   198   174   176 1   
   199   176   177 1   
   200   178   179 1   
   201   178   181 1   
   202   179   180 1   
   203   181   182 1   
   204   181   188 1   
   205   182   183 1   
   206   182   184 1   
   207   184   185 1   
   208   184   186 1   
   209   186   187 1   
   210   187   188 1   
@<TRIPOS>SUBSTRUCTURE
     1 PYR         1 TEMP              0 ****  ****    0 ROOT
