@<TRIPOS>MOLECULE
187
   48    52     1     0     0
SMALL
bcc


@<TRIPOS>ATOM
      1 C            3.3240     1.4570    -0.9620 c3         0 187       0.169700
      2 O            2.9900     2.4000     0.0620 os         0 187      -0.395100
      3 C1           1.6370     2.4620     0.0900 ca         0 187       0.673300
      4 N            0.9750     2.2800     1.2260 nb         0 187      -0.289500
      5 N1          -0.3160     2.2650     1.2230 nb         0 187      -0.289500
      6 C2          -0.9800     2.4430     0.0870 ca         0 187       0.673300
      7 O1          -2.3320     2.3150     0.0630 os         0 187      -0.395100
      8 C3          -2.5850     0.9310     0.3170 c3         0 187       0.169700
      9 C4          -4.0440     0.6130     0.1420 ca         0 187      -0.075300
     10 C5          -5.0080     1.5120     0.5610 ca         0 187      -0.109000
     11 C6          -6.3480     1.2040     0.4270 ca         0 187      -0.119000
     12 C7          -6.7340    -0.0020    -0.1270 ca         0 187      -0.119000
     13 C8          -5.7680    -0.8890    -0.5660 ca         0 187      -0.109000
     14 C9          -4.4270    -0.5820    -0.4430 ca         0 187      -0.075300
     15 C10         -3.3880    -1.5470    -0.9570 c3         0 187       0.169700
     16 O2          -2.9910    -2.4270     0.0990 os         0 187      -0.395100
     17 C11         -1.6360    -2.4530     0.0900 ca         0 187       0.673300
     18 N2          -0.9550    -2.2860     1.2180 nb         0 187      -0.289500
     19 N3           0.3360    -2.2600     1.1920 nb         0 187      -0.289500
     20 C12          0.9800    -2.4080     0.0420 ca         0 187       0.673300
     21 O3           2.3320    -2.2960     0.0030 os         0 187      -0.395100
     22 C13          2.6180    -0.9720     0.4590 c3         0 187       0.169700
     23 C14          4.0620    -0.6320     0.2080 ca         0 187      -0.075300
     24 C15          5.0580    -1.4940     0.6360 ca         0 187      -0.109000
     25 C16          6.3850    -1.1690     0.4350 ca         0 187      -0.119000
     26 C17          6.7250     0.0130    -0.1980 ca         0 187      -0.119000
     27 C18          5.7280     0.8580    -0.6470 ca         0 187      -0.109000
     28 C19          4.4000     0.5330    -0.4510 ca         0 187      -0.075300
     29 N4           0.3010    -2.6440    -1.0730 nb         0 187      -0.289500
     30 N5          -0.9880    -2.6650    -1.0490 nb         0 187      -0.289500
     31 N6          -0.3180     2.7180    -1.0310 nb         0 187      -0.289500
     32 N7           0.9710     2.7270    -1.0280 nb         0 187      -0.289500
     33 H            2.4390     0.8770    -1.2250 h1         0 187       0.077700
     34 H1           3.6870     1.9880    -1.8420 h1         0 187       0.077700
     35 H2          -2.0010     0.3260    -0.3760 h1         0 187       0.077700
     36 H3          -2.2860     0.6930     1.3390 h1         0 187       0.077700
     37 H4          -4.7130     2.4570     0.9940 ha         0 187       0.140000
     38 H5          -7.0980     1.9090     0.7570 ha         0 187       0.139000
     39 H6          -7.7810    -0.2510    -0.2160 ha         0 187       0.139000
     40 H7          -6.0640    -1.8280    -1.0090 ha         0 187       0.140000
     41 H8          -3.8070    -2.1300    -1.7770 h1         0 187       0.077700
     42 H9          -2.5200    -0.9910    -1.3120 h1         0 187       0.077700
     43 H10          1.9830    -0.2630    -0.0730 h1         0 187       0.077700
     44 H11          2.4120    -0.9050     1.5270 h1         0 187       0.077700
     45 H12          4.7970    -2.4200     1.1270 ha         0 187       0.140000
     46 H13          7.1610    -1.8390     0.7730 ha         0 187       0.139000
     47 H14          7.7630     0.2730    -0.3410 ha         0 187       0.139000
     48 H15          5.9890     1.7770    -1.1520 ha         0 187       0.140000
@<TRIPOS>BOND
     1     1     2 1   
     2     1    28 1   
     3     1    33 1   
     4     1    34 1   
     5     2     3 1   
     6     3     4 ar  
     7     3    32 ar  
     8     4     5 ar  
     9     5     6 ar  
    10     6     7 1   
    11     6    31 ar  
    12     7     8 1   
    13     8     9 1   
    14     8    35 1   
    15     8    36 1   
    16     9    10 ar  
    17     9    14 ar  
    18    10    11 ar  
    19    10    37 1   
    20    11    12 ar  
    21    11    38 1   
    22    12    13 ar  
    23    12    39 1   
    24    13    14 ar  
    25    13    40 1   
    26    14    15 1   
    27    15    16 1   
    28    15    41 1   
    29    15    42 1   
    30    16    17 1   
    31    17    18 ar  
    32    17    30 ar  
    33    18    19 ar  
    34    19    20 ar  
    35    20    21 1   
    36    20    29 ar  
    37    21    22 1   
    38    22    23 1   
    39    22    43 1   
    40    22    44 1   
    41    23    24 ar  
    42    23    28 ar  
    43    24    25 ar  
    44    24    45 1   
    45    25    26 ar  
    46    25    46 1   
    47    26    27 ar  
    48    26    47 1   
    49    27    28 ar  
    50    27    48 1   
    51    29    30 ar  
    52    31    32 ar  
@<TRIPOS>SUBSTRUCTURE
     1 187         1 TEMP              0 ****  ****    0 ROOT
