@<TRIPOS>MOLECULE
56
  108   114     1     0     0
SMALL
bcc


@<TRIPOS>ATOM
      1 C           -6.9060    -5.0100     0.4090 c3         0 56       -0.076567
      2 C1          -6.0060    -6.0970    -0.1780 c3         0 56       -0.076567
      3 C2          -4.6800    -5.4840    -0.6220 c3         0 56       -0.098400
      4 C3          -4.1150    -4.5670     0.4550 c3         0 56        0.174333
      5 N           -2.7620    -4.1290     0.0680 n3         0 56       -0.824533
      6 C4          -1.8860    -5.2640     0.3900 c3         0 56        0.210433
      7 C5          -0.4440    -4.9200     0.1310 ca         0 56       -0.106300
      8 C6           0.4480    -4.8670     1.1860 ca         0 56       -0.123833
      9 C7           1.7800    -4.5730     0.9710 ca         0 56       -0.123833
     10 C8           2.2200    -4.3270    -0.3140 ca         0 56       -0.106300
     11 C9           3.6710    -4.0170    -0.5870 c3         0 56        0.210433
     12 N1           4.1690    -3.0130     0.3620 n3         0 56       -0.824533
     13 C10          5.5370    -2.6810    -0.0540 c3         0 56        0.174333
     14 C11          6.5230    -3.6910     0.5400 c3         0 56       -0.098400
     15 C12          7.9420    -3.3540     0.0730 c3         0 56       -0.076567
     16 C13          8.3120    -1.9450     0.5440 c3         0 56       -0.076567
     17 C14          7.3250    -0.9360    -0.0500 c3         0 56       -0.098400
     18 C15          5.9050    -1.2730     0.4150 c3         0 56        0.174333
     19 N2           4.9580    -0.2990    -0.1510 n3         0 56       -0.824533
     20 C16          5.5610     1.0270     0.0490 c3         0 56        0.210433
     21 C17          4.5230     2.0990    -0.1560 ca         0 56       -0.106300
     22 C18          3.8550     2.6330     0.9300 ca         0 56       -0.123833
     23 C19          2.9120     3.6260     0.7580 ca         0 56       -0.123833
     24 C20          2.6300     4.0820    -0.5160 ca         0 56       -0.106300
     25 C21          1.6080     5.1710    -0.7300 c3         0 56        0.210433
     26 N3           0.6640     5.1860     0.3970 n3         0 56       -0.824533
     27 C22         -0.4090     6.1200     0.0290 c3         0 56        0.174333
     28 C23         -0.1330     7.4960     0.6420 c3         0 56       -0.098400
     29 C24         -1.2400     8.4690     0.2240 c3         0 56       -0.076567
     30 C25         -2.5910     7.9490     0.7200 c3         0 56       -0.076567
     31 C26         -2.8640     6.5710     0.1110 c3         0 56       -0.098400
     32 C27         -1.7560     5.6000     0.5300 c3         0 56        0.174333
     33 N4          -2.0240     4.2720    -0.0470 n3         0 56       -0.824533
     34 C28         -3.4600     4.2400    -0.3680 c3         0 56        0.210433
     35 C29         -3.9760     2.8260    -0.2760 ca         0 56       -0.106300
     36 C30         -3.9980     2.1710     0.9410 ca         0 56       -0.123833
     37 C31         -4.4800     0.8790     1.0180 ca         0 56       -0.123833
     38 C32         -4.9360     0.2380    -0.1190 ca         0 56       -0.106300
     39 C33         -5.4970    -1.1580    -0.0260 c3         0 56        0.210433
     40 N5          -4.4280    -2.1610     0.0340 n3         0 56       -0.824533
     41 C34         -5.0300    -3.3580     0.6430 c3         0 56        0.174333
     42 C35         -6.3880    -3.6320     0.0030 c3         0 56       -0.098400
     43 C36         -4.8920     0.8850    -1.3410 ca         0 56       -0.123833
     44 C37         -4.4170     2.1810    -1.4170 ca         0 56       -0.123833
     45 C38          3.2800     3.5330    -1.6070 ca         0 56       -0.123833
     46 C39          4.2260     2.5410    -1.4340 ca         0 56       -0.123833
     47 C40          1.3270    -4.3620    -1.3700 ca         0 56       -0.123833
     48 C41         -0.0070    -4.6550    -1.1550 ca         0 56       -0.123833
     49 H           -7.9220    -5.1390     0.0360 hc         0 56        0.040200
     50 H1          -6.9080    -5.0890     1.4960 hc         0 56        0.040200
     51 H2          -5.8180    -6.8600     0.5780 hc         0 56        0.040200
     52 H3          -6.5010    -6.5530    -1.0360 hc         0 56        0.040200
     53 H4          -3.9660    -6.2830    -0.8230 hc         0 56        0.046367
     54 H5          -4.8390    -4.9090    -1.5350 hc         0 56        0.046367
     55 H6          -4.0240    -5.1050     1.4030 h1         0 56        0.055200
     56 H7          -2.7630    -4.0390    -0.9370 hn         0 56        0.371633
     57 H8          -2.0090    -5.5240     1.4410 h1         0 56        0.049367
     58 H9          -2.1670    -6.1190    -0.2250 h1         0 56        0.049367
     59 H10          0.0980    -5.0570     2.1900 ha         0 56        0.135167
     60 H11          2.4710    -4.5370     1.8010 ha         0 56        0.135167
     61 H12          4.2590    -4.9290    -0.4880 h1         0 56        0.049367
     62 H13          3.7730    -3.6340    -1.6020 h1         0 56        0.049367
     63 H14          3.6140    -2.1820     0.2230 hn         0 56        0.371633
     64 H15          5.5930    -2.7180    -1.1450 h1         0 56        0.055200
     65 H16          6.4780    -3.6450     1.6280 hc         0 56        0.046367
     66 H17          6.2600    -4.6950     0.2080 hc         0 56        0.046367
     67 H18          8.6440    -4.0740     0.4940 hc         0 56        0.040200
     68 H19          7.9860    -3.3960    -1.0150 hc         0 56        0.040200
     69 H20          8.2650    -1.9010     1.6330 hc         0 56        0.040200
     70 H21          9.3220    -1.7040     0.2130 hc         0 56        0.040200
     71 H22          7.5880     0.0680     0.2830 hc         0 56        0.046367
     72 H23          7.3720    -0.9810    -1.1380 hc         0 56        0.046367
     73 H24          5.8560    -1.2280     1.5030 h1         0 56        0.055200
     74 H25          4.9370    -0.4610    -1.1470 hn         0 56        0.371633
     75 H26          5.9580     1.0960     1.0620 h1         0 56        0.049367
     76 H27          6.3720     1.1680    -0.6660 h1         0 56        0.049367
     77 H28          4.0740     2.2700     1.9230 ha         0 56        0.135167
     78 H29          2.3980     4.0430     1.6110 ha         0 56        0.135167
     79 H30          2.1130     6.1350    -0.7950 h1         0 56        0.049367
     80 H31          1.0660     4.9830    -1.6570 h1         0 56        0.049367
     81 H32          0.2470     4.2680     0.4390 hn         0 56        0.371633
     82 H33         -0.4390     6.2070    -1.0590 h1         0 56        0.055200
     83 H34         -0.1130     7.4130     1.7290 hc         0 56        0.046367
     84 H35          0.8290     7.8660     0.2870 hc         0 56        0.046367
     85 H36         -1.0460     9.4490     0.6590 hc         0 56        0.040200
     86 H37         -1.2600     8.5520    -0.8630 hc         0 56        0.040200
     87 H38         -2.5730     7.8690     1.8070 hc         0 56        0.040200
     88 H39         -3.3790     8.6410     0.4210 hc         0 56        0.040200
     89 H40         -3.8260     6.2010     0.4670 hc         0 56        0.046367
     90 H41         -2.8850     6.6520    -0.9760 hc         0 56        0.046367
     91 H42         -1.7330     5.5230     1.6170 h1         0 56        0.055200
     92 H43         -1.5300     4.2330    -0.9260 hn         0 56        0.371633
     93 H44         -4.0030     4.8700     0.3370 h1         0 56        0.049367
     94 H45         -3.6130     4.6160    -1.3790 h1         0 56        0.049367
     95 H46         -3.6380     2.6690     1.8300 ha         0 56        0.135167
     96 H47         -4.5010     0.3680     1.9690 ha         0 56        0.135167
     97 H48         -6.1110    -1.2370     0.8710 h1         0 56        0.049367
     98 H49         -6.1180    -1.3510    -0.9010 h1         0 56        0.049367
     99 H50         -4.2020    -2.4030    -0.9190 hn         0 56        0.371633
    100 H51         -5.1600    -3.1660     1.7130 h1         0 56        0.055200
    101 H52         -6.2890    -3.5910    -1.0820 hc         0 56        0.046367
    102 H53         -7.0980    -2.8710     0.3270 hc         0 56        0.046367
    103 H54         -5.2270     0.3780    -2.2340 ha         0 56        0.135167
    104 H55         -4.3910     2.6900    -2.3690 ha         0 56        0.135167
    105 H56          3.0460     3.8840    -2.6010 ha         0 56        0.135167
    106 H57          4.7290     2.1130    -2.2890 ha         0 56        0.135167
    107 H58          1.6750    -4.1580    -2.3720 ha         0 56        0.135167
    108 H59         -0.7000    -4.6770    -1.9830 ha         0 56        0.135167
@<TRIPOS>BOND
     1     1     2 1   
     2     1    42 1   
     3     1    49 1   
     4     1    50 1   
     5     2     3 1   
     6     2    51 1   
     7     2    52 1   
     8     3     4 1   
     9     3    53 1   
    10     3    54 1   
    11     4     5 1   
    12     4    41 1   
    13     4    55 1   
    14     5     6 1   
    15     5    56 1   
    16     6     7 1   
    17     6    57 1   
    18     6    58 1   
    19     7     8 ar  
    20     7    48 ar  
    21     8     9 ar  
    22     8    59 1   
    23     9    10 ar  
    24     9    60 1   
    25    10    11 1   
    26    10    47 ar  
    27    11    12 1   
    28    11    61 1   
    29    11    62 1   
    30    12    13 1   
    31    12    63 1   
    32    13    14 1   
    33    13    18 1   
    34    13    64 1   
    35    14    15 1   
    36    14    65 1   
    37    14    66 1   
    38    15    16 1   
    39    15    67 1   
    40    15    68 1   
    41    16    17 1   
    42    16    69 1   
    43    16    70 1   
    44    17    18 1   
    45    17    71 1   
    46    17    72 1   
    47    18    19 1   
    48    18    73 1   
    49    19    20 1   
    50    19    74 1   
    51    20    21 1   
    52    20    75 1   
    53    20    76 1   
    54    21    22 ar  
    55    21    46 ar  
    56    22    23 ar  
    57    22    77 1   
    58    23    24 ar  
    59    23    78 1   
    60    24    25 1   
    61    24    45 ar  
    62    25    26 1   
    63    25    79 1   
    64    25    80 1   
    65    26    27 1   
    66    26    81 1   
    67    27    28 1   
    68    27    32 1   
    69    27    82 1   
    70    28    29 1   
    71    28    83 1   
    72    28    84 1   
    73    29    30 1   
    74    29    85 1   
    75    29    86 1   
    76    30    31 1   
    77    30    87 1   
    78    30    88 1   
    79    31    32 1   
    80    31    89 1   
    81    31    90 1   
    82    32    33 1   
    83    32    91 1   
    84    33    34 1   
    85    33    92 1   
    86    34    35 1   
    87    34    93 1   
    88    34    94 1   
    89    35    36 ar  
    90    35    44 ar  
    91    36    37 ar  
    92    36    95 1   
    93    37    38 ar  
    94    37    96 1   
    95    38    39 1   
    96    38    43 ar  
    97    39    40 1   
    98    39    97 1   
    99    39    98 1   
   100    40    41 1   
   101    40    99 1   
   102    41    42 1   
   103    41   100 1   
   104    42   101 1   
   105    42   102 1   
   106    43    44 ar  
   107    43   103 1   
   108    44   104 1   
   109    45    46 ar  
   110    45   105 1   
   111    46   106 1   
   112    47    48 ar  
   113    47   107 1   
   114    48   108 1   
@<TRIPOS>SUBSTRUCTURE
     1 56          1 TEMP              0 ****  ****    0 ROOT
