@<TRIPOS>MOLECULE
M1
  150   154     1     0     0
SMALL
bcc


@<TRIPOS>ATOM
      1 O1           1.5050    10.1790    -6.4500 o          1 M1       -0.527000
      2 C1           1.5600     9.1250    -5.8320 c          1 M1        0.616350
      3 O2           1.1790     7.9720    -6.4100 oh         1 M1       -0.597100
      4 C2           2.0310     8.9670    -4.3890 c3         1 M1        0.073950
      5 C3           3.5610     8.9780    -4.3350 c3         1 M1       -0.053800
      6 S1           4.4140     7.5100    -5.0340 ss         1 M1       -0.163350
      7 S2           3.4630     5.9210    -4.1430 ss         1 M1       -0.120350
      8 C4           4.2090     5.8610    -2.4710 c3         1 M1       -0.060550
      9 C5           5.5440     5.1110    -2.4660 c3         1 M1        0.045700
     10 C6           6.3040     5.4180    -1.1640 c          1 M1        0.623100
     11 O3           5.9730     6.2710    -0.3520 o          1 M1       -0.531000
     12 O4           7.4670     4.7300    -1.0330 oh         1 M1       -0.581350
     13 N1           5.3600     3.6630    -2.6630 n          1 M1       -0.543650
     14 C7           6.3540     2.8460    -3.1390 c          1 M1        0.579100
     15 O5           7.5020     3.2630    -3.2780 o          1 M1       -0.603600
     16 C8           5.9880     1.4190    -3.4030 ca         1 M1        0.357300
     17 C9           6.9480     0.5780    -3.9580 ca         1 M1       -0.158550
     18 C10          6.6200    -0.7560    -4.1660 ca         1 M1       -0.105000
     19 C11          5.3550    -1.2050    -3.8060 ca         1 M1       -0.158550
     20 C12          4.4530    -0.2920    -3.2650 ca         1 M1        0.357300
     21 N2           4.7310     1.0230    -3.0550 nb         1 M1       -0.653500
     22 C13          3.1220    -0.7980    -2.7980 c          1 M1        0.579100
     23 O6           2.9790    -1.9880    -2.5210 o          1 M1       -0.603600
     24 N3           2.0600     0.0710    -2.6380 n          1 M1       -0.543650
     25 C14          1.7520     1.2250    -3.5080 c3         1 M1        0.045700
     26 C15          1.7520     2.5380    -2.7250 c          1 M1        0.623100
     27 O7           1.3400     3.6040    -3.1570 o          1 M1       -0.531000
     28 O8           2.3770     2.4440    -1.5250 oh         1 M1       -0.581350
     29 C16          0.4780     1.0310    -4.3490 c3         1 M1       -0.060550
     30 S3          -1.1440     1.0880    -3.4960 ss         1 M1       -0.120350
     31 S4          -1.0960    -0.4550    -2.1550 ss         1 M1       -0.163350
     32 C17         -1.5580    -1.9190    -3.1500 c3         1 M1       -0.053800
     33 C18         -1.2930    -3.2580    -2.4370 c3         1 M1        0.073950
     34 C19          0.1660    -3.3120    -1.9830 c          1 M1        0.616350
     35 O9           0.5790    -2.9950    -0.8770 o          1 M1       -0.527000
     36 O10          1.0220    -3.5890    -2.9920 oh         1 M1       -0.597100
     37 N4          -1.5430    -4.3710    -3.3740 n          1 M1       -0.568150
     38 C20         -1.7880    -5.6750    -3.0240 c          1 M1        0.678950
     39 O11         -1.4640    -6.5830    -3.7840 o          1 M1       -0.593850
     40 C21         -2.4100    -6.0110    -1.7250 ca         1 M1       -0.123100
     41 C22         -1.8290    -7.0320    -0.9660 ca         1 M1       -0.096375
     42 C23         -2.4130    -7.4330     0.2380 ca         1 M1       -0.096375
     43 C24         -3.6020    -6.8320     0.6730 ca         1 M1       -0.123100
     44 C25         -4.1760    -5.8010    -0.0850 ca         1 M1       -0.096375
     45 C26         -3.5880    -5.3960    -1.2880 ca         1 M1       -0.096375
     46 C27         -4.2740    -7.2520     1.9320 c          1 M1        0.678950
     47 O12         -4.9820    -6.4830     2.5730 o          1 M1       -0.593850
     48 N5          -4.1350    -8.5620     2.3180 n          1 M1       -0.568150
     49 C28         -4.3950    -9.0610     3.6830 c3         1 M1        0.073950
     50 C29         -5.8630    -9.1000     4.1360 c          1 M1        0.616350
     51 O13         -6.2610    -9.8730     5.0000 o          1 M1       -0.527000
     52 O14         -6.6770    -8.1670     3.6020 oh         1 M1       -0.597100
     53 C30         -3.5860    -8.3600     4.7900 c3         1 M1       -0.053800
     54 S5          -1.8070    -8.2310     4.3670 ss         1 M1       -0.163350
     55 S6          -0.9130    -7.9750     6.1960 ss         1 M1       -0.120350
     56 C31         -1.2610    -6.2310     6.6870 c3         1 M1       -0.060550
     57 C32         -0.9280    -5.1720     5.6230 c3         1 M1        0.045700
     58 C33         -0.4890    -3.8080     6.1840 c          1 M1        0.623100
     59 O15         -0.5170    -2.7470     5.5610 o          1 M1       -0.531000
     60 O16          0.0390    -3.8460     7.4190 oh         1 M1       -0.581350
     61 N6          -1.9900    -4.8950     4.6490 n          1 M1       -0.543650
     62 C34         -3.2600    -4.4850     5.0170 c          1 M1        0.579100
     63 O17         -3.7270    -4.6100     6.1400 o          1 M1       -0.603600
     64 C35         -4.0090    -3.7820     3.9310 ca         1 M1        0.357300
     65 C36         -5.3800    -3.5930     4.0180 ca         1 M1       -0.158550
     66 C37         -6.0070    -2.8930     2.9920 ca         1 M1       -0.105000
     67 C38         -5.2400    -2.3850     1.9450 ca         1 M1       -0.158550
     68 C39         -3.8650    -2.5960     1.9650 ca         1 M1        0.357300
     69 N7          -3.2280    -3.3080     2.9230 nb         1 M1       -0.653500
     70 C40         -3.0250    -1.9960     0.8870 c          1 M1        0.579100
     71 O18         -3.4840    -1.9210    -0.2520 o          1 M1       -0.603600
     72 N8          -1.7640    -1.5010     1.1600 n          1 M1       -0.543650
     73 C41         -1.1120    -1.3550     2.4680 c3         1 M1        0.045700
     74 C42         -1.8540    -0.3680     3.3840 c          1 M1        0.623100
     75 O19         -2.6000     0.5280     3.0070 o          1 M1       -0.531000
     76 O20         -1.6410    -0.5690     4.7060 oh         1 M1       -0.581350
     77 C43          0.3890    -1.0030     2.3990 c3         1 M1       -0.060550
     78 S7           1.0410     0.0080     1.0100 ss         1 M1       -0.120350
     79 S8          -0.1080     1.7010     0.9840 ss         1 M1       -0.163350
     80 C44          0.6440     2.7370     2.3030 c3         1 M1       -0.053800
     81 C45         -0.1850     3.9930     2.6220 c3         1 M1        0.073950
     82 C46         -1.6140     3.6180     2.9980 c          1 M1        0.616350
     83 O21         -2.6250     3.9660     2.4040 o          1 M1       -0.527000
     84 O22         -1.6640     2.7890     4.0600 oh         1 M1       -0.597100
     85 N9          -0.2100     4.9660     1.5270 n          1 M1       -0.568150
     86 C47          0.8650     5.7890     1.2880 c          1 M1        0.678950
     87 O23          1.9070     5.6860     1.9280 o          1 M1       -0.593850
     88 C48          0.7320     6.8360     0.2290 ca         1 M1       -0.123100
     89 C49          1.8850     7.5610    -0.1150 ca         1 M1       -0.096375
     90 C50          1.8280     8.5850    -1.0640 ca         1 M1       -0.096375
     91 C51          0.6150     8.8890    -1.6870 ca         1 M1       -0.123100
     92 C52         -0.5440     8.1900    -1.3370 ca         1 M1       -0.096375
     93 C53         -0.4860     7.1620    -0.3860 ca         1 M1       -0.096375
     94 C54          0.5220    10.0040    -2.6580 c          1 M1        0.678950
     95 O24         -0.3770    10.8310    -2.5620 o          1 M1       -0.593850
     96 N10          1.4780    10.1180    -3.6420 n          1 M1       -0.568150
     97 H1           0.8940     8.2270    -7.3130 ho         1 M1        0.465500
     98 H2           1.5920     8.0550    -3.9790 h1         1 M1        0.109200
     99 H3           3.9480     9.8500    -4.8760 h1         1 M1        0.103950
    100 H4           3.9070     9.0870    -3.3030 h1         1 M1        0.103950
    101 H5           3.4950     5.3600    -1.8100 h1         1 M1        0.115825
    102 H6           4.3140     6.8870    -2.1050 h1         1 M1        0.115825
    103 H7           6.1890     5.4880    -3.2710 h1         1 M1        0.106450
    104 H8           7.6790     4.1930    -1.8340 ho         1 M1        0.458000
    105 H9           4.4630     3.2450    -2.4250 hn         1 M1        0.338750
    106 H10          7.9370     0.9500    -4.2150 ha         1 M1        0.176500
    107 H11          7.3500    -1.4430    -4.5890 ha         1 M1        0.158500
    108 H12          5.0870    -2.2500    -3.9320 ha         1 M1        0.176500
    109 H13          1.2480    -0.3650    -2.2030 hn         1 M1        0.338750
    110 H14          2.5700     1.3170    -4.2300 h1         1 M1        0.106450
    111 H15          2.5670     1.5000    -1.3220 ho         1 M1        0.458000
    112 H16          0.5340     0.0820    -4.8950 h1         1 M1        0.115825
    113 H17          0.4360     1.8230    -5.1050 h1         1 M1        0.115825
    114 H18         -2.6200    -1.8450    -3.4080 h1         1 M1        0.103950
    115 H19         -0.9870    -1.8860    -4.0850 h1         1 M1        0.103950
    116 H20         -1.9170    -3.3770    -1.5530 h1         1 M1        0.109200
    117 H21          1.9090    -3.3090    -2.6430 ho         1 M1        0.465500
    118 H22         -0.9700    -4.3520    -4.2130 hn         1 M1        0.334750
    119 H23         -0.9200    -7.5190    -1.3160 ha         1 M1        0.158375
    120 H24         -1.9190    -8.2070     0.8190 ha         1 M1        0.158375
    121 H25         -5.0960    -5.3230     0.2470 ha         1 M1        0.158375
    122 H26         -4.0620    -4.6190    -1.8840 ha         1 M1        0.158375
    123 H27         -3.5900    -9.1810     1.7310 hn         1 M1        0.334750
    124 H28         -4.0880   -10.1140     3.6340 h1         1 M1        0.109200
    125 H29         -6.1870    -7.4830     3.0870 ho         1 M1        0.465500
    126 H30         -3.6940    -8.9210     5.7260 h1         1 M1        0.103950
    127 H31         -3.9690    -7.3500     4.9660 h1         1 M1        0.103950
    128 H32         -0.6500    -6.0880     7.5830 h1         1 M1        0.115825
    129 H33         -2.2970    -6.1960     7.0270 h1         1 M1        0.115825
    130 H34         -0.0630    -5.5110     5.0380 h1         1 M1        0.106450
    131 H35          0.2660    -2.9220     7.6580 ho         1 M1        0.458000
    132 H36         -1.7080    -4.5860     3.7210 hn         1 M1        0.338750
    133 H37         -5.9460    -3.9880     4.8560 ha         1 M1        0.176500
    134 H38         -7.0820    -2.7310     3.0140 ha         1 M1        0.158500
    135 H39         -5.7010    -1.8110     1.1470 ha         1 M1        0.176500
    136 H40         -1.3890    -0.9360     0.4020 hn         1 M1        0.338750
    137 H41         -1.1670    -2.3310     2.9540 h1         1 M1        0.106450
    138 H42         -1.1370    -1.3860     4.9470 ho         1 M1        0.458000
    139 H43          0.7300    -0.5450     3.3340 h1         1 M1        0.115825
    140 H44          0.9400    -1.9480     2.3140 h1         1 M1        0.115825
    141 H45          0.7310     2.1230     3.2050 h1         1 M1        0.103950
    142 H46          1.6530     3.0150     1.9810 h1         1 M1        0.103950
    143 H47          0.2530     4.5030     3.4890 h1         1 M1        0.109200
    144 H48         -2.5370     2.3320     3.9810 ho         1 M1        0.465500
    145 H49         -1.0390     4.9720     0.9450 hn         1 M1        0.334750
    146 H50          2.8340     7.3420     0.3740 ha         1 M1        0.158375
    147 H51          2.7230     9.1630    -1.2780 ha         1 M1        0.158375
    148 H52         -1.4970     8.4530    -1.7910 ha         1 M1        0.158375
    149 H53         -1.4110     6.6580    -0.1270 ha         1 M1        0.158375
    150 H54          1.2980    10.9400    -4.2170 hn         1 M1        0.334750
@<TRIPOS>BOND
     1     1     2 2   
     2     2     3 1   
     3     2     4 1   
     4     3    97 1   
     5     4     5 1   
     6     4    96 1   
     7     4    98 1   
     8     5     6 1   
     9     5    99 1   
    10     5   100 1   
    11     6     7 1   
    12     7     8 1   
    13     8     9 1   
    14     8   101 1   
    15     8   102 1   
    16     9    10 1   
    17     9    13 1   
    18     9   103 1   
    19    10    11 2   
    20    10    12 1   
    21    12   104 1   
    22    13    14 1   
    23    13   105 1   
    24    14    15 2   
    25    14    16 1   
    26    16    17 ar  
    27    16    21 ar  
    28    17    18 ar  
    29    17   106 1   
    30    18    19 ar  
    31    18   107 1   
    32    19    20 ar  
    33    19   108 1   
    34    20    21 ar  
    35    20    22 1   
    36    22    23 2   
    37    22    24 1   
    38    24    25 1   
    39    24   109 1   
    40    25    26 1   
    41    25    29 1   
    42    25   110 1   
    43    26    27 2   
    44    26    28 1   
    45    28   111 1   
    46    29    30 1   
    47    29   112 1   
    48    29   113 1   
    49    30    31 1   
    50    31    32 1   
    51    32    33 1   
    52    32   114 1   
    53    32   115 1   
    54    33    34 1   
    55    33    37 1   
    56    33   116 1   
    57    34    35 2   
    58    34    36 1   
    59    36   117 1   
    60    37    38 1   
    61    37   118 1   
    62    38    39 2   
    63    38    40 1   
    64    40    41 ar  
    65    40    45 ar  
    66    41    42 ar  
    67    41   119 1   
    68    42    43 ar  
    69    42   120 1   
    70    43    44 ar  
    71    43    46 1   
    72    44    45 ar  
    73    44   121 1   
    74    45   122 1   
    75    46    47 2   
    76    46    48 1   
    77    48    49 1   
    78    48   123 1   
    79    49    50 1   
    80    49    53 1   
    81    49   124 1   
    82    50    51 2   
    83    50    52 1   
    84    52   125 1   
    85    53    54 1   
    86    53   126 1   
    87    53   127 1   
    88    54    55 1   
    89    55    56 1   
    90    56    57 1   
    91    56   128 1   
    92    56   129 1   
    93    57    58 1   
    94    57    61 1   
    95    57   130 1   
    96    58    59 2   
    97    58    60 1   
    98    60   131 1   
    99    61    62 1   
   100    61   132 1   
   101    62    63 2   
   102    62    64 1   
   103    64    65 ar  
   104    64    69 ar  
   105    65    66 ar  
   106    65   133 1   
   107    66    67 ar  
   108    66   134 1   
   109    67    68 ar  
   110    67   135 1   
   111    68    69 ar  
   112    68    70 1   
   113    70    71 2   
   114    70    72 1   
   115    72    73 1   
   116    72   136 1   
   117    73    74 1   
   118    73    77 1   
   119    73   137 1   
   120    74    75 2   
   121    74    76 1   
   122    76   138 1   
   123    77    78 1   
   124    77   139 1   
   125    77   140 1   
   126    78    79 1   
   127    79    80 1   
   128    80    81 1   
   129    80   141 1   
   130    80   142 1   
   131    81    82 1   
   132    81    85 1   
   133    81   143 1   
   134    82    83 2   
   135    82    84 1   
   136    84   144 1   
   137    85    86 1   
   138    85   145 1   
   139    86    87 2   
   140    86    88 1   
   141    88    89 ar  
   142    88    93 ar  
   143    89    90 ar  
   144    89   146 1   
   145    90    91 ar  
   146    90   147 1   
   147    91    92 ar  
   148    91    94 1   
   149    92    93 ar  
   150    92   148 1   
   151    93   149 1   
   152    94    95 2   
   153    94    96 1   
   154    96   150 1   
@<TRIPOS>SUBSTRUCTURE
     1 M1          1 TEMP              0 ****  ****    0 ROOT
