@<TRIPOS>MOLECULE
ASB
  106   110     1     0     0
SMALL
bcc


@<TRIPOS>ATOM
      1 C           -0.2520    -3.9740    -2.9240 c3         0 ASB       0.110700
      2 O           -0.1870    -3.2190    -1.7130 os         0 ASB      -0.381400
      3 C1          -0.1200    -4.1150    -0.6940 ca         0 ASB       0.105100
      4 C2          -1.2850    -4.6000    -0.1190 ca         0 ASB      -0.130050
      5 C3          -2.6230    -4.1600    -0.6400 c3         0 ASB       0.128050
      6 N           -2.9070    -2.7650    -0.2450 n          0 ASB      -0.543650
      7 C4          -4.2120    -2.4860    -0.0550 c          0 ASB       0.663950
      8 O1          -4.9750    -3.4300     0.0030 o          0 ASB      -0.556350
      9 C5          -4.7950    -1.1480     0.0900 ca         0 ASB      -0.186850
     10 C6          -6.1720    -1.0560     0.3560 ca         0 ASB       0.093650
     11 C7          -6.9850    -2.3170     0.4940 c3         0 ASB      -0.101550
     12 N1          -6.7620     0.1080     0.4870 na         0 ASB      -0.000100
     13 C8          -8.1980     0.1520     0.7750 c3         0 ASB      -0.036400
     14 C9          -6.1000     1.2360     0.3660 ca         0 ASB       0.093650
     15 C10         -6.8330     2.5430     0.5260 c3         0 ASB      -0.101550
     16 C11         -4.7250     1.2490     0.0910 ca         0 ASB      -0.186850
     17 C12         -4.0560     0.0310    -0.0340 ca         0 ASB       0.104200
     18 C13         -2.5730    -0.0120    -0.2950 c3         0 ASB      -0.111800
     19 C14         -4.0710     2.5490    -0.0880 c          0 ASB       0.663950
     20 O2          -4.7800     3.5350    -0.0450 o          0 ASB      -0.556350
     21 N2          -2.7530     2.7500    -0.2960 n          0 ASB      -0.543650
     22 C15         -2.4060     4.0950    -0.8010 c3         0 ASB       0.128050
     23 C16         -1.1150     4.5740    -0.1970 ca         0 ASB      -0.130050
     24 C17          0.0960     4.1190    -0.6960 ca         0 ASB       0.105100
     25 O3           0.1170     3.2230    -1.7180 os         0 ASB      -0.381400
     26 C18          0.1380     3.9790    -2.9300 c3         0 ASB       0.110700
     27 C19          1.2860     4.5800    -0.1530 ca         0 ASB      -0.130050
     28 C20          2.6000     4.1170    -0.7160 c3         0 ASB       0.128050
     29 N3           2.9030     2.7410    -0.2660 n          0 ASB      -0.543650
     30 C21          4.2150     2.4830    -0.0740 c          0 ASB       0.663950
     31 O4           4.9700     3.4350    -0.0210 o          0 ASB      -0.556350
     32 C22          4.8020     1.1470     0.0770 ca         0 ASB      -0.186850
     33 C23          4.0620    -0.0290    -0.0450 ca         0 ASB       0.104200
     34 C24          2.5780     0.0160    -0.3060 c3         0 ASB      -0.111800
     35 C25          4.7290    -1.2500     0.0810 ca         0 ASB      -0.186850
     36 C26          6.1040    -1.2390     0.3610 ca         0 ASB       0.093650
     37 C27          6.8360    -2.5470     0.5210 c3         0 ASB      -0.101550
     38 N4           6.7640    -0.1110     0.4870 na         0 ASB      -0.000100
     39 C28          8.1980    -0.1540     0.7840 c3         0 ASB      -0.036400
     40 C29          6.1750     1.0540     0.3520 ca         0 ASB       0.093650
     41 C30          6.9870     2.3150     0.4960 c3         0 ASB      -0.101550
     42 C31          4.0680    -2.5470    -0.1000 c          0 ASB       0.663950
     43 O5           4.7630    -3.5430    -0.0480 o          0 ASB      -0.556350
     44 N5           2.7460    -2.7190    -0.3190 n          0 ASB      -0.543650
     45 C32          2.3760    -4.0400    -0.8710 c3         0 ASB       0.128050
     46 C33          1.1130    -4.5500    -0.2330 ca         0 ASB      -0.130050
     47 C34          1.1790    -5.4580     0.8080 ca         0 ASB      -0.104500
     48 C35          0.0160    -5.9380     1.3810 ca         0 ASB      -0.061300
     49 C36          0.0910    -6.9240     2.5170 c3         0 ASB      -0.066300
     50 C37         -1.2150    -5.5030     0.9260 ca         0 ASB      -0.104500
     51 C38          1.2630     5.4820     0.8940 ca         0 ASB      -0.104500
     52 C39          0.0540     5.9300     1.3930 ca         0 ASB      -0.061300
     53 C40          0.0310     6.9140     2.5350 c3         0 ASB      -0.066300
     54 C41         -1.1330     5.4780     0.8490 ca         0 ASB      -0.104500
     55 H           -0.4020    -3.2990    -3.7660 h1         0 ASB       0.055200
     56 H1           0.6790    -4.5230    -3.0600 h1         0 ASB       0.055200
     57 H2          -1.0840    -4.6770    -2.8700 h1         0 ASB       0.055200
     58 H3          -2.6260    -4.2320    -1.7280 h1         0 ASB       0.085700
     59 H4          -3.3970    -4.8120    -0.2360 h1         0 ASB       0.085700
     60 H5          -2.2080    -2.1020    -0.1300 hn         0 ASB       0.319750
     61 H6          -6.8590    -2.7230     1.4980 hc         0 ASB       0.101283
     62 H7          -8.0370    -2.0920     0.3220 hc         0 ASB       0.101283
     63 H8          -6.6460    -3.0500    -0.2390 hc         0 ASB       0.101283
     64 H9          -8.3520     0.1310     1.8540 h1         0 ASB       0.101033
     65 H10         -8.6230     1.0680     0.3650 h1         0 ASB       0.101033
     66 H11         -8.6860    -0.7100     0.3210 h1         0 ASB       0.101033
     67 H12         -6.6560     2.9380     1.5260 hc         0 ASB       0.101283
     68 H13         -6.4720     3.2550    -0.2160 hc         0 ASB       0.101283
     69 H14         -7.9010     2.3800     0.3830 hc         0 ASB       0.101283
     70 H15         -2.0370    -0.0160     0.6540 hc         0 ASB       0.094033
     71 H16         -2.3280    -0.9150    -0.8540 hc         0 ASB       0.094033
     72 H17         -2.2800     0.8640    -0.8730 hc         0 ASB       0.094033
     73 H18         -2.0870     2.0660    -0.1260 hn         0 ASB       0.319750
     74 H19         -2.3010     4.0540    -1.8860 h1         0 ASB       0.085700
     75 H20         -3.2030     4.7920    -0.5440 h1         0 ASB       0.085700
     76 H21          0.1550     3.2990    -3.7820 h1         0 ASB       0.055200
     77 H22         -0.7530     4.6050    -2.9830 h1         0 ASB       0.055200
     78 H23          1.0270     4.6090    -2.9500 h1         0 ASB       0.055200
     79 H24          2.5510     4.1360    -1.8040 h1         0 ASB       0.085700
     80 H25          3.3910     4.7870    -0.3800 h1         0 ASB       0.085700
     81 H26          2.2130     2.0750    -0.1210 hn         0 ASB       0.319750
     82 H27          2.3990     0.0340    -1.3810 hc         0 ASB       0.094033
     83 H28          2.1060    -0.8660     0.1270 hc         0 ASB       0.094033
     84 H29          2.1570     0.9130     0.1480 hc         0 ASB       0.094033
     85 H30          7.0630    -2.9590    -0.4620 hc         0 ASB       0.101283
     86 H31          7.7640    -2.3790     1.0680 hc         0 ASB       0.101283
     87 H32          6.2110    -3.2480     1.0740 hc         0 ASB       0.101283
     88 H33          8.7640    -0.1230    -0.1470 h1         0 ASB       0.101033
     89 H34          8.4670     0.7030     1.4010 h1         0 ASB       0.101033
     90 H35          8.4310    -1.0740     1.3200 h1         0 ASB       0.101033
     91 H36          7.2690     2.6800    -0.4910 hc         0 ASB       0.101283
     92 H37          6.3940     3.0720     1.0090 hc         0 ASB       0.101283
     93 H38          7.8860     2.1040     1.0760 hc         0 ASB       0.101283
     94 H39          2.0900    -2.0290    -0.1290 hn         0 ASB       0.319750
     95 H40          2.2220    -3.9500    -1.9460 h1         0 ASB       0.085700
     96 H41          3.1840    -4.7470    -0.6820 h1         0 ASB       0.085700
     97 H42          2.1390    -5.7930     1.1730 ha         0 ASB       0.146500
     98 H43          0.1200    -6.3860     3.4650 hc         0 ASB       0.059700
     99 H44         -0.7860    -7.5720     2.4950 hc         0 ASB       0.059700
    100 H45          0.9920    -7.5290     2.4150 hc         0 ASB       0.059700
    101 H46         -2.1210    -5.8800     1.3770 ha         0 ASB       0.146500
    102 H47          2.1890     5.8360     1.3220 ha         0 ASB       0.146500
    103 H48          0.0370     7.9290     2.1390 hc         0 ASB       0.059700
    104 H49         -0.8700     6.7600     3.1290 hc         0 ASB       0.059700
    105 H50          0.9100     6.7630     3.1620 hc         0 ASB       0.059700
    106 H51         -2.0760     5.8320     1.2410 ha         0 ASB       0.146500
@<TRIPOS>BOND
     1     1     2 1   
     2     1    55 1   
     3     1    56 1   
     4     1    57 1   
     5     2     3 1   
     6     3     4 ar  
     7     3    46 ar  
     8     4     5 1   
     9     4    50 ar  
    10     5     6 1   
    11     5    58 1   
    12     5    59 1   
    13     6     7 1   
    14     6    60 1   
    15     7     8 2   
    16     7     9 1   
    17     9    10 ar  
    18     9    17 ar  
    19    10    11 1   
    20    10    12 2   
    21    11    61 1   
    22    11    62 1   
    23    11    63 1   
    24    12    13 1   
    25    12    14 1   
    26    13    64 1   
    27    13    65 1   
    28    13    66 1   
    29    14    15 1   
    30    14    16 ar  
    31    15    67 1   
    32    15    68 1   
    33    15    69 1   
    34    16    17 ar  
    35    16    19 1   
    36    17    18 1   
    37    18    70 1   
    38    18    71 1   
    39    18    72 1   
    40    19    20 2   
    41    19    21 1   
    42    21    22 1   
    43    21    73 1   
    44    22    23 1   
    45    22    74 1   
    46    22    75 1   
    47    23    24 ar  
    48    23    54 ar  
    49    24    25 1   
    50    24    27 ar  
    51    25    26 1   
    52    26    76 1   
    53    26    77 1   
    54    26    78 1   
    55    27    28 1   
    56    27    51 ar  
    57    28    29 1   
    58    28    79 1   
    59    28    80 1   
    60    29    30 1   
    61    29    81 1   
    62    30    31 2   
    63    30    32 1   
    64    32    33 ar  
    65    32    40 ar  
    66    33    34 1   
    67    33    35 ar  
    68    34    82 1   
    69    34    83 1   
    70    34    84 1   
    71    35    36 ar  
    72    35    42 1   
    73    36    37 1   
    74    36    38 2   
    75    37    85 1   
    76    37    86 1   
    77    37    87 1   
    78    38    39 1   
    79    38    40 1   
    80    39    88 1   
    81    39    89 1   
    82    39    90 1   
    83    40    41 1   
    84    41    91 1   
    85    41    92 1   
    86    41    93 1   
    87    42    43 2   
    88    42    44 1   
    89    44    45 1   
    90    44    94 1   
    91    45    46 1   
    92    45    95 1   
    93    45    96 1   
    94    46    47 ar  
    95    47    48 ar  
    96    47    97 1   
    97    48    49 1   
    98    48    50 ar  
    99    49    98 1   
   100    49    99 1   
   101    49   100 1   
   102    50   101 1   
   103    51    52 ar  
   104    51   102 1   
   105    52    53 1   
   106    52    54 ar  
   107    53   103 1   
   108    53   104 1   
   109    53   105 1   
   110    54   106 1   
@<TRIPOS>SUBSTRUCTURE
     1 ASB         1 TEMP              0 ****  ****    0 ROOT
