@<TRIPOS>MOLECULE
ASB
   94   100     1     0     0
SMALL
bcc


@<TRIPOS>ATOM
      1 C           10.6970     0.3870    -0.0590 c3         0 ASB      -0.063000
      2 C1           9.1940     0.2770    -0.0400 ca         0 ASB      -0.490000
      3 C2           8.4130     1.4120    -0.0250 ca         0 ASB       0.345500
      4 O            9.0060     2.6300    -0.0290 o          0 ASB      -0.557000
      5 C3           6.9960     1.3260    -0.0070 ca         0 ASB      -0.406500
      6 C4           6.3930     0.0730    -0.0120 ca         0 ASB       0.031000
      7 C5           7.1760    -1.0770    -0.0210 ca         0 ASB      -0.406500
      8 C6           8.5850    -0.9600    -0.0430 ca         0 ASB       0.345500
      9 O1           9.3480    -2.0790    -0.0550 o          0 ASB      -0.557000
     10 C7           6.6520    -2.4360    -0.0150 c2         0 ASB       0.411000
     11 O2           7.4850    -3.3220     0.0160 o          0 ASB      -0.430500
     12 N            5.3710    -2.8420    -0.0380 n          0 ASB      -0.415000
     13 C8           5.2030    -4.3170    -0.0320 c3         0 ASB       0.016000
     14 C9           3.7350    -4.6310     0.0010 ca         0 ASB      -0.065500
     15 C10          3.0620    -4.9020    -1.1790 ca         0 ASB      -0.130500
     16 C11          1.6970    -5.0920    -1.1720 ca         0 ASB      -0.127500
     17 C12          0.9940    -5.0060     0.0280 cp         0 ASB      -0.044500
     18 C13          1.6900    -4.8610     1.2280 ca         0 ASB      -0.127500
     19 C14          3.0570    -4.6740     1.2080 ca         0 ASB      -0.130500
     20 C15         -0.4860    -4.9340     0.0130 cq         0 ASB      -0.044500
     21 C16         -1.1800    -4.9380    -1.1950 ca         0 ASB      -0.127500
     22 C17         -2.5510    -4.7720    -1.1990 ca         0 ASB      -0.130500
     23 C18         -3.2360    -4.6070    -0.0070 ca         0 ASB      -0.065500
     24 C19         -4.7120    -4.3570    -0.0060 c3         0 ASB       0.016000
     25 N1          -4.9940    -2.9020     0.0510 n          0 ASB      -0.415000
     26 C20         -6.2910    -2.5960     0.0180 c2         0 ASB       0.411000
     27 O3          -7.0230    -3.5660    -0.0120 o          0 ASB      -0.430500
     28 C21         -6.9960    -1.3280     0.0090 ca         0 ASB      -0.406500
     29 C22         -8.4120    -1.4160     0.0450 ca         0 ASB       0.345500
     30 O4          -9.0040    -2.6340     0.0810 o          0 ASB      -0.557000
     31 C23         -9.1920    -0.2820     0.0430 ca         0 ASB      -0.490000
     32 C24        -10.6950    -0.3930     0.0780 c3         0 ASB      -0.063000
     33 C25         -8.5860     0.9560     0.0090 ca         0 ASB       0.345500
     34 O5          -9.3520     2.0730     0.0060 o          0 ASB      -0.557000
     35 C26         -7.1750     1.0760    -0.0240 ca         0 ASB      -0.406500
     36 C27         -6.3910    -0.0750    -0.0240 ca         0 ASB       0.031000
     37 C28         -6.6550     2.4350    -0.0630 c2         0 ASB       0.411000
     38 O6          -7.4940     3.3150    -0.0890 o          0 ASB      -0.430500
     39 N2          -5.3810     2.8540    -0.0730 n          0 ASB      -0.415000
     40 C29         -5.2020     4.3240    -0.1470 c3         0 ASB       0.016000
     41 C30         -3.7340     4.6390    -0.0990 ca         0 ASB      -0.065500
     42 C31         -3.0270     4.8410    -1.2730 ca         0 ASB      -0.130500
     43 C32         -1.6580     5.0160    -1.2370 ca         0 ASB      -0.127500
     44 C33         -0.9920     5.0020    -0.0130 cp         0 ASB      -0.044500
     45 C34         -1.7250     4.9420     1.1720 ca         0 ASB      -0.127500
     46 C35         -3.0920     4.7670     1.1220 ca         0 ASB      -0.130500
     47 C36          0.4890     4.9290     0.0260 cp         0 ASB      -0.044500
     48 C37          1.2130     4.8370    -1.1620 ca         0 ASB      -0.127500
     49 C38          2.5810     4.6740    -1.1210 ca         0 ASB      -0.130500
     50 C39          3.2380     4.6090     0.0970 ca         0 ASB      -0.065500
     51 C40          4.7130     4.3520     0.1400 c3         0 ASB       0.016000
     52 N3           4.9880     2.8960     0.0290 n          0 ASB      -0.415000
     53 C41          6.2910     2.5960     0.0350 c2         0 ASB       0.411000
     54 O7           7.0220     3.5660     0.0840 o          0 ASB      -0.430500
     55 C42          2.5310     4.7780     1.2760 ca         0 ASB      -0.130500
     56 C43          1.1610     4.9390     1.2460 ca         0 ASB      -0.127500
     57 C44         -2.5540    -4.6780     1.1980 ca         0 ASB      -0.130500
     58 C45         -1.1860    -4.8420     1.2140 ca         0 ASB      -0.127500
     59 H           11.0720     0.4100     0.9640 hc         0 ASB       0.015000
     60 H1          11.1170    -0.4720    -0.5810 hc         0 ASB       0.015000
     61 H2          10.9880     1.3040    -0.5730 hc         0 ASB       0.015000
     62 H3           5.3160    -0.0080    -0.0090 ha         0 ASB       0.068000
     63 H4           4.6220    -2.2260    -0.0560 hn         0 ASB       0.205000
     64 H5           5.6470    -4.7390    -0.9330 h1         0 ASB       0.074500
     65 H6           5.6870    -4.7370     0.8490 h1         0 ASB       0.074500
     66 H7           3.6100    -4.9650    -2.1080 ha         0 ASB       0.132750
     67 H8           1.1740    -5.3050    -2.0930 ha         0 ASB       0.123500
     68 H9           1.1610    -4.8960     2.1690 ha         0 ASB       0.123500
     69 H10          3.5990    -4.5600     2.1350 ha         0 ASB       0.132750
     70 H11         -0.6480    -5.0710    -2.1250 ha         0 ASB       0.123500
     71 H12         -3.0910    -4.7710    -2.1350 ha         0 ASB       0.132750
     72 H13         -5.1480    -4.7720    -0.9150 h1         0 ASB       0.074500
     73 H14         -5.1590    -4.8440     0.8610 h1         0 ASB       0.074500
     74 H15         -4.2960    -2.2310     0.1080 hn         0 ASB       0.205000
     75 H16        -11.0340    -0.4020     1.1140 hc         0 ASB       0.015000
     76 H17        -11.1340     0.4590    -0.4410 hc         0 ASB       0.015000
     77 H18        -11.0030    -1.3160    -0.4140 hc         0 ASB       0.015000
     78 H19         -5.3140     0.0040    -0.0500 ha         0 ASB       0.068000
     79 H20         -4.6320     2.2400    -0.0340 hn         0 ASB       0.205000
     80 H21         -5.6250     4.6970    -1.0790 h1         0 ASB       0.074500
     81 H22         -5.7040     4.7960     0.6980 h1         0 ASB       0.074500
     82 H23         -3.5480     4.8610    -2.2190 ha         0 ASB       0.132750
     83 H24         -1.1060     5.1640    -2.1530 ha         0 ASB       0.123500
     84 H25         -1.2240     5.0330     2.1250 ha         0 ASB       0.123500
     85 H26         -3.6640     4.7290     2.0380 ha         0 ASB       0.132750
     86 H27          0.7030     4.8930    -2.1120 ha         0 ASB       0.123500
     87 H28          3.1430     4.5970    -2.0400 ha         0 ASB       0.132750
     88 H29          5.1950     4.8740    -0.6870 h1         0 ASB       0.074500
     89 H30          5.1170     4.7240     1.0810 h1         0 ASB       0.074500
     90 H31          4.2890     2.2270    -0.0410 hn         0 ASB       0.205000
     91 H32          3.0530     4.7830     2.2210 ha         0 ASB       0.132750
     92 H33          0.6120     5.0730     2.1660 ha         0 ASB       0.123500
     93 H34         -3.0980    -4.6040     2.1280 ha         0 ASB       0.132750
     94 H35         -0.6590    -4.9000     2.1550 ha         0 ASB       0.123500
@<TRIPOS>BOND
     1     1     2 1   
     2     1    59 1   
     3     1    60 1   
     4     1    61 1   
     5     2     3 1   
     6     2     8 1   
     7     3     4 1   
     8     3     5 1   
     9     5     6 1   
    10     5    53 1   
    11     6     7 1   
    12     6    62 1   
    13     7     8 1   
    14     7    10 1   
    15     8     9 1   
    16    10    11 1   
    17    10    12 1   
    18    12    13 1   
    19    12    63 1   
    20    13    14 1   
    21    13    64 1   
    22    13    65 1   
    23    14    15 1   
    24    14    19 1   
    25    15    16 1   
    26    15    66 1   
    27    16    17 1   
    28    16    67 1   
    29    17    18 1   
    30    17    20 1   
    31    18    19 1   
    32    18    68 1   
    33    19    69 1   
    34    20    21 1   
    35    20    58 1   
    36    21    22 1   
    37    21    70 1   
    38    22    23 1   
    39    22    71 1   
    40    23    24 1   
    41    23    57 1   
    42    24    25 1   
    43    24    72 1   
    44    24    73 1   
    45    25    26 1   
    46    25    74 1   
    47    26    27 1   
    48    26    28 1   
    49    28    29 1   
    50    28    36 1   
    51    29    30 1   
    52    29    31 1   
    53    31    32 1   
    54    31    33 1   
    55    32    75 1   
    56    32    76 1   
    57    32    77 1   
    58    33    34 1   
    59    33    35 1   
    60    35    36 1   
    61    35    37 1   
    62    36    78 1   
    63    37    38 1   
    64    37    39 1   
    65    39    40 1   
    66    39    79 1   
    67    40    41 1   
    68    40    80 1   
    69    40    81 1   
    70    41    42 1   
    71    41    46 1   
    72    42    43 1   
    73    42    82 1   
    74    43    44 1   
    75    43    83 1   
    76    44    45 1   
    77    44    47 1   
    78    45    46 1   
    79    45    84 1   
    80    46    85 1   
    81    47    48 1   
    82    47    56 1   
    83    48    49 1   
    84    48    86 1   
    85    49    50 1   
    86    49    87 1   
    87    50    51 1   
    88    50    55 1   
    89    51    52 1   
    90    51    88 1   
    91    51    89 1   
    92    52    53 1   
    93    52    90 1   
    94    53    54 1   
    95    55    56 1   
    96    55    91 1   
    97    56    92 1   
    98    57    58 1   
    99    57    93 1   
   100    58    94 1   
@<TRIPOS>SUBSTRUCTURE
     1 ASB         1 TEMP              0 ****  ****    0 ROOT
