@<TRIPOS>MOLECULE
ASB
  106   112     1     0     0
SMALL
bcc


@<TRIPOS>ATOM
      1 C           -9.1780     2.6650    -0.0340 c3         0 ASB      -0.101800
      2 C1          -8.4720     1.3330    -0.0160 ca         0 ASB       0.098900
      3 C2          -7.0630     1.3010    -0.0200 ca         0 ASB      -0.174100
      4 C3          -6.4300     0.0580     0.0040 ca         0 ASB       0.013000
      5 C4          -7.2210    -1.0910     0.0100 ca         0 ASB      -0.174100
      6 C5          -8.6190    -0.9490     0.0130 ca         0 ASB       0.098900
      7 C6          -9.4870    -2.1810     0.0280 c3         0 ASB      -0.101800
      8 N           -9.1830     0.2340     0.0070 na         0 ASB       0.006900
      9 C7         -10.6450     0.3280     0.0160 c3         0 ASB      -0.039400
     10 C8          -6.6890    -2.4550     0.0030 c          0 ASB       0.662200
     11 O           -7.5050    -3.3540    -0.0600 o          0 ASB      -0.560600
     12 N1          -5.4010    -2.8210     0.0590 n          0 ASB      -0.541900
     13 C9          -5.1870    -4.2920     0.0280 c3         0 ASB       0.127300
     14 C10         -3.7060    -4.5580     0.0120 ca         0 ASB      -0.133300
     15 C11         -3.0350    -4.7950     1.2010 ca         0 ASB      -0.112500
     16 C12         -1.6670    -4.9670     1.2040 ca         0 ASB      -0.117000
     17 C13         -0.9570    -4.8910     0.0070 cp         0 ASB      -0.027500
     18 C14         -1.6500    -4.7580    -1.1970 ca         0 ASB      -0.117000
     19 C15         -3.0190    -4.5850    -1.1890 ca         0 ASB      -0.112500
     20 C16          0.5200    -4.8150     0.0190 cp         0 ASB      -0.027500
     21 C17          1.2100    -4.8210     1.2280 ca         0 ASB      -0.117000
     22 C18          2.5820    -4.6770     1.2370 ca         0 ASB      -0.112500
     23 C19          3.2720    -4.5310     0.0460 ca         0 ASB      -0.133300
     24 C20          4.7600    -4.3200     0.0620 c3         0 ASB       0.127300
     25 N2           5.0720    -2.8740    -0.0140 n          0 ASB      -0.541900
     26 C21          6.3790    -2.5910    -0.0150 c          0 ASB       0.662200
     27 O1           7.1130    -3.5610    -0.0090 o          0 ASB      -0.560600
     28 C22          7.0620    -1.3040    -0.0220 ca         0 ASB      -0.174100
     29 C23          6.4340    -0.0590     0.0410 ca         0 ASB       0.013000
     30 C24          7.2230     1.0910     0.0200 ca         0 ASB      -0.174100
     31 C25          8.6190     0.9420    -0.0530 ca         0 ASB       0.098900
     32 C26          9.4910     2.1710    -0.0670 c3         0 ASB      -0.101800
     33 N3           9.1800    -0.2400    -0.1090 na         0 ASB       0.006900
     34 C27         10.6400    -0.3370    -0.1850 c3         0 ASB      -0.039400
     35 C28          8.4670    -1.3380    -0.0980 ca         0 ASB       0.098900
     36 C29          9.1670    -2.6710    -0.1690 c3         0 ASB      -0.101800
     37 C30          6.6980     2.4570     0.0620 c          0 ASB       0.662200
     38 O2           7.5240     3.3480     0.0370 o          0 ASB      -0.560600
     39 N4           5.4170     2.8430     0.1230 n          0 ASB      -0.541900
     40 C31          5.1880     4.3110     0.1830 c3         0 ASB       0.127300
     41 C32          3.7040     4.5720     0.1360 ca         0 ASB      -0.133300
     42 C33          2.9920     4.7260     1.3140 ca         0 ASB      -0.112500
     43 C34          1.6210     4.8880     1.2800 ca         0 ASB      -0.117000
     44 C35          0.9540     4.8880     0.0560 cp         0 ASB      -0.027500
     45 C36          1.6900     4.8430    -1.1290 ca         0 ASB      -0.117000
     46 C37          3.0590     4.6800    -1.0850 ca         0 ASB      -0.112500
     47 C38         -0.5240     4.8100     0.0110 cp         0 ASB      -0.027500
     48 C39         -1.2540     4.7260     1.1940 ca         0 ASB      -0.117000
     49 C40         -2.6260     4.5850     1.1510 ca         0 ASB      -0.112500
     50 C41         -3.2770     4.5310    -0.0680 ca         0 ASB      -0.133300
     51 C42         -4.7660     4.3150    -0.1140 c3         0 ASB       0.127300
     52 N5          -5.0720     2.8660    -0.0160 n          0 ASB      -0.541900
     53 C43         -6.3750     2.5880    -0.0690 c          0 ASB       0.662200
     54 O3          -7.1010     3.5570    -0.1760 o          0 ASB      -0.560600
     55 C44         -2.5630     4.6700    -1.2440 ca         0 ASB      -0.112500
     56 C45         -1.1890     4.8060    -1.2130 ca         0 ASB      -0.117000
     57 C46          2.5950    -4.5790    -1.1590 ca         0 ASB      -0.112500
     58 C47          1.2230    -4.7180    -1.1800 ca         0 ASB      -0.117000
     59 H           -9.2280     3.0360    -1.0570 hc         0 ASB       0.104033
     60 H1         -10.1880     2.5460     0.3600 hc         0 ASB       0.104033
     61 H2          -8.6290     3.3750     0.5840 hc         0 ASB       0.104033
     62 H3          -5.3530    -0.0130     0.0170 ha         0 ASB       0.187000
     63 H4          -9.4870    -2.6130     1.0290 hc         0 ASB       0.104033
     64 H5         -10.5060    -1.9110    -0.2510 hc         0 ASB       0.104033
     65 H6          -9.0970    -2.9090    -0.6820 hc         0 ASB       0.104033
     66 H7         -11.0070     0.2570     1.0410 h1         0 ASB       0.102700
     67 H8         -10.9500     1.2830    -0.4120 h1         0 ASB       0.102700
     68 H9         -11.0650    -0.4860    -0.5750 h1         0 ASB       0.102700
     69 H10         -4.6720    -2.1830     0.1140 hn         0 ASB       0.313000
     70 H11         -5.6310    -4.7450     0.9140 h1         0 ASB       0.085450
     71 H12         -5.6430    -4.7090    -0.8690 h1         0 ASB       0.085450
     72 H13         -3.5860    -4.8440     2.1290 ha         0 ASB       0.143500
     73 H14         -1.1480    -5.1610     2.1300 ha         0 ASB       0.144250
     74 H15         -1.1150    -4.7900    -2.1350 ha         0 ASB       0.144250
     75 H16         -3.5540    -4.4700    -2.1200 ha         0 ASB       0.143500
     76 H17          0.6720    -4.9380     2.1570 ha         0 ASB       0.144250
     77 H18          3.1180    -4.6790     2.1750 ha         0 ASB       0.143500
     78 H19          5.1730    -4.7310     0.9820 h1         0 ASB       0.085450
     79 H20          5.2060    -4.8310    -0.7920 h1         0 ASB       0.085450
     80 H21          4.3860    -2.1890    -0.0600 hn         0 ASB       0.313000
     81 H22          5.3580     0.0120     0.1040 ha         0 ASB       0.187000
     82 H23          9.4400     2.6640     0.9040 hc         0 ASB       0.104033
     83 H24         10.5210     1.8840    -0.2750 hc         0 ASB       0.104033
     84 H25          9.1410     2.8560    -0.8400 hc         0 ASB       0.104033
     85 H26         11.0550    -0.3660     0.8220 h1         0 ASB       0.102700
     86 H27         10.9170    -1.2460    -0.7190 h1         0 ASB       0.102700
     87 H28         11.0340     0.5310    -0.7150 h1         0 ASB       0.102700
     88 H29          9.1950    -3.1200     0.8240 hc         0 ASB       0.104033
     89 H30          8.6280    -3.3290    -0.8500 hc         0 ASB       0.104033
     90 H31         10.1850    -2.5280    -0.5320 hc         0 ASB       0.104033
     91 H32          4.6850     2.2060     0.1270 hn         0 ASB       0.313000
     92 H33          5.6000     4.7070     1.1110 h1         0 ASB       0.085450
     93 H34          5.6710     4.7910    -0.6680 h1         0 ASB       0.085450
     94 H35          3.5100     4.7200     2.2610 ha         0 ASB       0.143500
     95 H36          1.0680     5.0140     2.1990 ha         0 ASB       0.144250
     96 H37          1.1880     4.9350    -2.0810 ha         0 ASB       0.144250
     97 H38          3.6280     4.6360    -2.0020 ha         0 ASB       0.143500
     98 H39         -0.7450     4.7710     2.1460 ha         0 ASB       0.144250
     99 H40         -3.1910     4.5180     2.0690 ha         0 ASB       0.143500
    100 H41         -5.2330     4.8410     0.7190 h1         0 ASB       0.085450
    101 H42         -5.1590     4.7060    -1.0520 h1         0 ASB       0.085450
    102 H43         -4.3870     2.1860     0.0800 hn         0 ASB       0.313000
    103 H44         -3.0820     4.6740    -2.1910 ha         0 ASB       0.143500
    104 H45         -0.6330     4.9080    -2.1330 ha         0 ASB       0.144250
    105 H46          3.1430    -4.5070    -2.0870 ha         0 ASB       0.143500
    106 H47          0.6950    -4.7510    -2.1220 ha         0 ASB       0.144250
@<TRIPOS>BOND
     1     1     2 1   
     2     1    59 1   
     3     1    60 1   
     4     1    61 1   
     5     2     3 ar  
     6     2     8 2   
     7     3     4 ar  
     8     3    53 1   
     9     4     5 ar  
    10     4    62 1   
    11     5     6 ar  
    12     5    10 1   
    13     6     7 1   
    14     6     8 1   
    15     7    63 1   
    16     7    64 1   
    17     7    65 1   
    18     8     9 1   
    19     9    66 1   
    20     9    67 1   
    21     9    68 1   
    22    10    11 2   
    23    10    12 1   
    24    12    13 1   
    25    12    69 1   
    26    13    14 1   
    27    13    70 1   
    28    13    71 1   
    29    14    15 ar  
    30    14    19 ar  
    31    15    16 ar  
    32    15    72 1   
    33    16    17 ar  
    34    16    73 1   
    35    17    18 ar  
    36    17    20 1   
    37    18    19 ar  
    38    18    74 1   
    39    19    75 1   
    40    20    21 ar  
    41    20    58 ar  
    42    21    22 ar  
    43    21    76 1   
    44    22    23 ar  
    45    22    77 1   
    46    23    24 1   
    47    23    57 ar  
    48    24    25 1   
    49    24    78 1   
    50    24    79 1   
    51    25    26 1   
    52    25    80 1   
    53    26    27 2   
    54    26    28 1   
    55    28    29 ar  
    56    28    35 ar  
    57    29    30 ar  
    58    29    81 1   
    59    30    31 ar  
    60    30    37 1   
    61    31    32 1   
    62    31    33 2   
    63    32    82 1   
    64    32    83 1   
    65    32    84 1   
    66    33    34 1   
    67    33    35 1   
    68    34    85 1   
    69    34    86 1   
    70    34    87 1   
    71    35    36 1   
    72    36    88 1   
    73    36    89 1   
    74    36    90 1   
    75    37    38 2   
    76    37    39 1   
    77    39    40 1   
    78    39    91 1   
    79    40    41 1   
    80    40    92 1   
    81    40    93 1   
    82    41    42 ar  
    83    41    46 ar  
    84    42    43 ar  
    85    42    94 1   
    86    43    44 ar  
    87    43    95 1   
    88    44    45 ar  
    89    44    47 1   
    90    45    46 ar  
    91    45    96 1   
    92    46    97 1   
    93    47    48 ar  
    94    47    56 ar  
    95    48    49 ar  
    96    48    98 1   
    97    49    50 ar  
    98    49    99 1   
    99    50    51 1   
   100    50    55 ar  
   101    51    52 1   
   102    51   100 1   
   103    51   101 1   
   104    52    53 1   
   105    52   102 1   
   106    53    54 2   
   107    55    56 ar  
   108    55   103 1   
   109    56   104 1   
   110    57    58 ar  
   111    57   105 1   
   112    58   106 1   
@<TRIPOS>SUBSTRUCTURE
     1 ASB         1 TEMP              0 ****  ****    0 ROOT
