@<TRIPOS>MOLECULE
173
   90    96     1     0     0
SMALL
bcc


@<TRIPOS>ATOM
      1 O            0.7450    -4.2440     2.4910 oh         0 173      -0.507600
      2 C            1.4930    -4.2630     1.3550 ca         0 173       0.100267
      3 C1           2.7280    -3.6320     1.3270 ca         0 173      -0.152250
      4 C2           3.4860    -3.6500     0.1730 ca         0 173      -0.087633
      5 C3           2.9840    -4.2440    -0.9770 ca         0 173       0.100267
      6 O1           3.7020    -4.2070    -2.1310 oh         0 173      -0.507600
      7 C4           1.7510    -4.8750    -0.9480 ca         0 173      -0.152250
      8 C5           1.0240    -4.9200     0.2270 ca         0 173      -0.087633
      9 C6          -0.2410    -5.7270     0.2900 c3         0 173       0.012367
     10 C7          -1.4640    -4.8560     0.2530 ca         0 173      -0.087633
     11 C8          -2.0150    -4.4790    -0.9640 ca         0 173       0.100267
     12 O2          -1.4040    -4.8350    -2.1250 oh         0 173      -0.507600
     13 C9          -3.1880    -3.7420    -0.9950 ca         0 173      -0.152250
     14 C10         -3.8040    -3.3720     0.1850 ca         0 173      -0.087633
     15 C11         -5.1270    -2.6630     0.1570 c3         0 173       0.012367
     16 C12         -4.9680    -1.1780     0.0060 ca         0 173      -0.087633
     17 C13         -4.9290    -0.6080    -1.2600 ca         0 173       0.100267
     18 O3          -4.9580    -1.4010    -2.3640 oh         0 173      -0.507600
     19 C14         -4.8610     0.7690    -1.3970 ca         0 173      -0.152250
     20 C15         -4.8210     1.5750    -0.2750 ca         0 173      -0.087633
     21 C16         -4.8510     3.0680    -0.4250 c3         0 173       0.012367
     22 C17         -3.4790     3.6750    -0.3720 ca         0 173      -0.087633
     23 C18         -2.7670     3.8840    -1.5450 ca         0 173       0.100267
     24 O4          -3.2760     3.4620    -2.7340 oh         0 173      -0.507600
     25 C19         -1.5370     4.5220    -1.5050 ca         0 173      -0.152250
     26 C20         -1.0150     4.9410    -0.2960 ca         0 173      -0.087633
     27 C21          0.2600     5.7320    -0.2610 c3         0 173       0.012367
     28 C22          1.4750     4.8570    -0.1670 ca         0 173      -0.087633
     29 C23          2.0080     4.5420     1.0760 ca         0 173       0.100267
     30 O5           1.3800     4.9560     2.2090 oh         0 173      -0.507600
     31 C24          3.1780     3.8060     1.1610 ca         0 173      -0.152250
     32 C25          3.8110     3.3760     0.0100 ca         0 173      -0.087633
     33 C26          5.1350     2.6760     0.1000 c3         0 173       0.012367
     34 C27          4.9900     1.1820     0.1140 ca         0 173      -0.087633
     35 C28          4.8670     0.5060     1.3200 ca         0 173       0.100267
     36 O6           4.8060     1.2030     2.4860 oh         0 173      -0.507600
     37 C29          4.8070    -0.8780     1.3370 ca         0 173      -0.152250
     38 C30          4.8600    -1.5860     0.1520 ca         0 173      -0.087633
     39 C31          4.8780    -3.0820     0.1710 c3         0 173       0.012367
     40 C32          4.9150    -0.9080    -1.0570 ca         0 173       0.100267
     41 O7           4.9040    -1.6020    -2.2270 oh         0 173      -0.507600
     42 C33          4.9810     0.4760    -1.0740 ca         0 173      -0.152250
     43 C34          3.2350     3.6210    -1.2280 ca         0 173       0.100267
     44 O8           3.8150     3.1330    -2.3570 oh         0 173      -0.507600
     45 C35          2.0670     4.3640    -1.3140 ca         0 173      -0.152250
     46 C36         -1.6890     4.6580     0.8840 ca         0 173       0.100267
     47 O9          -1.1390     5.0000     2.0790 oh         0 173      -0.507600
     48 C37         -2.9220     4.0260     0.8430 ca         0 173      -0.152250
     49 C38         -4.7850     1.0020     0.9880 ca         0 173       0.100267
     50 O10         -4.6750     1.7910     2.0900 oh         0 173      -0.507600
     51 C39         -4.8610    -0.3750     1.1250 ca         0 173      -0.152250
     52 C40         -3.2110    -3.6830     1.4010 ca         0 173       0.100267
     53 O11         -3.7780    -3.2580     2.5620 oh         0 173      -0.507600
     54 C41         -2.0430    -4.4270     1.4330 ca         0 173      -0.152250
     55 H            0.1850    -3.4570     2.4430 ho         0 173       0.424833
     56 H1           3.0960    -3.1250     2.2070 ha         0 173       0.148500
     57 H2           4.2620    -4.9950    -2.1370 ho         0 173       0.424833
     58 H3           1.3590    -5.3360    -1.8430 ha         0 173       0.148500
     59 H4          -0.2680    -6.4110    -0.5580 hc         0 173       0.067950
     60 H5          -0.2470    -6.3070     1.2120 hc         0 173       0.067950
     61 H6          -1.7710    -5.6910    -2.3830 ho         0 173       0.424833
     62 H7          -3.6210    -3.4560    -1.9420 ha         0 173       0.148500
     63 H8          -5.7150    -3.0430    -0.6780 hc         0 173       0.067950
     64 H9          -5.6590    -2.8690     1.0860 hc         0 173       0.067950
     65 H10         -5.8890    -1.5190    -2.5990 ho         0 173       0.424833
     66 H11         -4.8380     1.2120    -2.3810 ha         0 173       0.148500
     67 H12         -5.3100     3.3180    -1.3820 hc         0 173       0.067950
     68 H13         -5.4550     3.4920     0.3770 hc         0 173       0.067950
     69 H14         -3.8010     4.1930    -3.0870 ho         0 173       0.424833
     70 H15         -0.9870     4.6920    -2.4190 ha         0 173       0.148500
     71 H16          0.3270     6.3320    -1.1690 hc         0 173       0.067950
     72 H17          0.2370     6.3990     0.6000 hc         0 173       0.067950
     73 H18          0.7580     4.2580     2.4550 ho         0 173       0.424833
     74 H19          3.5970     3.5690     2.1280 ha         0 173       0.148500
     75 H20          5.7460     2.9630    -0.7560 hc         0 173       0.067950
     76 H21          5.6400     2.9900     1.0140 hc         0 173       0.067950
     77 H22          3.8710     1.3860     2.6540 ho         0 173       0.424833
     78 H23          4.7190    -1.4040     2.2770 ha         0 173       0.148500
     79 H24          5.4000    -3.4220     1.0660 hc         0 173       0.067950
     80 H25          5.4090    -3.4440    -0.7090 hc         0 173       0.067950
     81 H26          3.9770    -1.7010    -2.4840 ho         0 173       0.424833
     82 H27          5.0260     1.0030    -2.0160 ha         0 173       0.148500
     83 H28          3.4340     2.2570    -2.5100 ho         0 173       0.424833
     84 H29          1.6200     4.5570    -2.2780 ha         0 173       0.148500
     85 H30         -1.4470     5.8940     2.2830 ho         0 173       0.424833
     86 H31         -3.4480     3.8090     1.7610 ha         0 173       0.148500
     87 H32         -5.5750     2.0100     2.3690 ho         0 173       0.424833
     88 H33         -4.8380    -0.8210     2.1090 ha         0 173       0.148500
     89 H34         -4.3920    -3.9510     2.8430 ho         0 173       0.424833
     90 H35         -1.5840    -4.6720     2.3800 ha         0 173       0.148500
@<TRIPOS>BOND
     1     1     2 1   
     2     1    55 1   
     3     2     3 ar  
     4     2     8 ar  
     5     3     4 ar  
     6     3    56 1   
     7     4     5 ar  
     8     4    39 1   
     9     5     6 1   
    10     5     7 ar  
    11     6    57 1   
    12     7     8 ar  
    13     7    58 1   
    14     8     9 1   
    15     9    10 1   
    16     9    59 1   
    17     9    60 1   
    18    10    11 ar  
    19    10    54 ar  
    20    11    12 1   
    21    11    13 ar  
    22    12    61 1   
    23    13    14 ar  
    24    13    62 1   
    25    14    15 1   
    26    14    52 ar  
    27    15    16 1   
    28    15    63 1   
    29    15    64 1   
    30    16    17 ar  
    31    16    51 ar  
    32    17    18 1   
    33    17    19 ar  
    34    18    65 1   
    35    19    20 ar  
    36    19    66 1   
    37    20    21 1   
    38    20    49 ar  
    39    21    22 1   
    40    21    67 1   
    41    21    68 1   
    42    22    23 ar  
    43    22    48 ar  
    44    23    24 1   
    45    23    25 ar  
    46    24    69 1   
    47    25    26 ar  
    48    25    70 1   
    49    26    27 1   
    50    26    46 ar  
    51    27    28 1   
    52    27    71 1   
    53    27    72 1   
    54    28    29 ar  
    55    28    45 ar  
    56    29    30 1   
    57    29    31 ar  
    58    30    73 1   
    59    31    32 ar  
    60    31    74 1   
    61    32    33 1   
    62    32    43 ar  
    63    33    34 1   
    64    33    75 1   
    65    33    76 1   
    66    34    35 ar  
    67    34    42 ar  
    68    35    36 1   
    69    35    37 ar  
    70    36    77 1   
    71    37    38 ar  
    72    37    78 1   
    73    38    39 1   
    74    38    40 ar  
    75    39    79 1   
    76    39    80 1   
    77    40    41 1   
    78    40    42 ar  
    79    41    81 1   
    80    42    82 1   
    81    43    44 1   
    82    43    45 ar  
    83    44    83 1   
    84    45    84 1   
    85    46    47 1   
    86    46    48 ar  
    87    47    85 1   
    88    48    86 1   
    89    49    50 1   
    90    49    51 ar  
    91    50    87 1   
    92    51    88 1   
    93    52    53 1   
    94    52    54 ar  
    95    53    89 1   
    96    54    90 1   
@<TRIPOS>SUBSTRUCTURE
     1 173         1 TEMP              0 ****  ****    0 ROOT
