@<TRIPOS>MOLECULE
ASB
   90    94     1     0     0
SMALL
bcc


@<TRIPOS>ATOM
      1 C            7.4550     2.9120    -0.4920 c3         0 ASB      -0.064800
      2 C1           6.8580     1.5360    -0.3530 ca         0 ASB      -0.039550
      3 C2           7.5650     0.4290    -0.7810 ca         0 ASB      -0.143500
      4 C3           7.0200    -0.8330    -0.6530 ca         0 ASB      -0.039550
      5 C4           7.7970    -2.0400    -1.1140 c3         0 ASB      -0.064800
      6 C5           5.7600    -0.9900    -0.1000 ca         0 ASB      -0.124300
      7 C6           5.1860    -2.3740     0.0430 c3         0 ASB       0.132800
      8 N            3.7430    -2.3530    -0.2790 n          0 ASB      -0.551400
      9 C7           3.0060    -3.3380     0.3180 c          0 ASB       0.667450
     10 O            3.5530    -4.2020     0.9770 o          0 ASB      -0.609850
     11 C8           1.5400    -3.3410     0.1540 ca         0 ASB      -0.152850
     12 C9           0.7820    -4.3930     0.6850 ca         0 ASB       0.128100
     13 O1           1.3980    -5.4080     1.3430 oh         0 ASB      -0.513350
     14 C10         -0.5940    -4.3960     0.5390 ca         0 ASB      -0.112750
     15 C11         -1.2290    -3.3490    -0.1250 ca         0 ASB      -0.152850
     16 C12         -0.4700    -2.2960    -0.6580 ca         0 ASB       0.128100
     17 O2          -1.0850    -1.2760    -1.3080 oh         0 ASB      -0.513350
     18 C13          0.9060    -2.2980    -0.5190 ca         0 ASB      -0.112750
     19 C14         -2.6940    -3.3490    -0.2920 c          0 ASB       0.667450
     20 O3          -3.3380    -4.3560    -0.0690 o          0 ASB      -0.609850
     21 N1          -3.3190    -2.2080    -0.6990 n          0 ASB      -0.551400
     22 C15         -4.7440    -2.3440    -1.0600 c3         0 ASB       0.132800
     23 C16         -5.5190    -1.1810    -0.4980 ca         0 ASB      -0.124300
     24 C17         -6.7170    -1.4080     0.1530 ca         0 ASB      -0.039550
     25 C18         -7.2360    -2.8140     0.3040 c3         0 ASB      -0.064800
     26 C19         -7.4400    -0.3470     0.6640 ca         0 ASB      -0.143500
     27 C20         -6.9660     0.9430     0.5260 ca         0 ASB      -0.039550
     28 C21         -7.7560     2.1000     1.0820 c3         0 ASB      -0.064800
     29 C22         -5.7650     1.1720    -0.1230 ca         0 ASB      -0.124300
     30 C23         -5.2550     2.5810    -0.2710 c3         0 ASB       0.132800
     31 N2          -3.8550     2.6330     0.2030 n          0 ASB      -0.551400
     32 C24         -2.9440     3.1490    -0.6720 c          0 ASB       0.667450
     33 O4          -3.2860     3.5340    -1.7740 o          0 ASB      -0.609850
     34 C25         -1.5310     3.2280    -0.2460 ca         0 ASB      -0.152850
     35 C26         -1.2110     3.1390     1.1170 ca         0 ASB       0.128100
     36 O5          -2.1980     3.0320     2.0430 oh         0 ASB      -0.513350
     37 C27          0.1140     3.1610     1.5150 ca         0 ASB      -0.112750
     38 C28          1.1300     3.2400     0.5650 ca         0 ASB      -0.152850
     39 C29          0.8090     3.3800    -0.7950 ca         0 ASB       0.128100
     40 O6           1.7950     3.5130    -1.7180 oh         0 ASB      -0.513350
     41 C30         -0.5180     3.3810    -1.1910 ca         0 ASB      -0.112750
     42 C31          2.5410     3.1600     0.9800 c          0 ASB       0.667450
     43 O7           2.8900     3.6440     2.0390 o          0 ASB      -0.609850
     44 N3           3.4580     2.5440     0.1790 n          0 ASB      -0.551400
     45 C32          4.8500     2.5980     0.6780 c3         0 ASB       0.132800
     46 C33          5.6030     1.3800     0.2080 ca         0 ASB      -0.124300
     47 C34          5.0510     0.1190     0.3220 ca         0 ASB      -0.049300
     48 C35          3.6730    -0.0480     0.9080 c3         0 ASB      -0.072300
     49 C36         -5.0430     0.1090    -0.6350 ca         0 ASB      -0.049300
     50 C37         -3.7360     0.3580    -1.3430 c3         0 ASB      -0.072300
     51 H            7.1760     3.3340    -1.4580 hc         0 ASB       0.052617
     52 H1           7.0810     3.5530     0.3060 hc         0 ASB       0.052617
     53 H2           8.5410     2.8450    -0.4260 hc         0 ASB       0.052617
     54 H3           8.5460     0.5510    -1.2170 ha         0 ASB       0.137500
     55 H4           8.3220    -2.4800    -0.2660 hc         0 ASB       0.052617
     56 H5           7.1110    -2.7730    -1.5370 hc         0 ASB       0.052617
     57 H6           8.5200    -1.7380    -1.8720 hc         0 ASB       0.052617
     58 H7           5.7000    -3.0520    -0.6390 h1         0 ASB       0.068575
     59 H8           5.3240    -2.7190     1.0680 h1         0 ASB       0.068575
     60 H9           3.3490    -1.6910    -0.8690 hn         0 ASB       0.318000
     61 H10          1.4380    -5.1540     2.2750 ho         0 ASB       0.448250
     62 H11         -1.1770    -5.2120     0.9400 ha         0 ASB       0.165000
     63 H12         -1.2910    -0.6040    -0.6430 ho         0 ASB       0.448250
     64 H13          1.4900    -1.4900    -0.9340 ha         0 ASB       0.165000
     65 H14         -2.8550    -1.3570    -0.7490 hn         0 ASB       0.318000
     66 H15         -4.8440    -2.3560    -2.1450 h1         0 ASB       0.068575
     67 H16         -5.1350    -3.2740    -0.6480 h1         0 ASB       0.068575
     68 H17         -6.8600    -3.2430     1.2330 hc         0 ASB       0.052617
     69 H18         -8.3260    -2.7990     0.3260 hc         0 ASB       0.052617
     70 H19         -6.8980    -3.4190    -0.5380 hc         0 ASB       0.052617
     71 H20         -8.3760    -0.5260     1.1720 ha         0 ASB       0.137500
     72 H21         -7.4460     2.2910     2.1090 hc         0 ASB       0.052617
     73 H22         -7.5740     2.9880     0.4770 hc         0 ASB       0.052617
     74 H23         -8.8180     1.8580     1.0620 hc         0 ASB       0.052617
     75 H24         -5.2970     2.8770    -1.3190 h1         0 ASB       0.068575
     76 H25         -5.8680     3.2560     0.3270 h1         0 ASB       0.068575
     77 H26         -3.6000     2.3180     1.0840 hn         0 ASB       0.318000
     78 H27         -2.3800     3.9260     2.3620 ho         0 ASB       0.448250
     79 H28          0.3610     3.1170     2.5650 ha         0 ASB       0.165000
     80 H29          2.0280     2.6210    -2.0090 ho         0 ASB       0.448250
     81 H30         -0.7680     3.5000    -2.2350 ha         0 ASB       0.165000
     82 H31          3.2160     2.1050    -0.6520 hn         0 ASB       0.318000
     83 H32          5.3380     3.4950     0.2970 h1         0 ASB       0.068575
     84 H33          4.8440     2.6220     1.7680 h1         0 ASB       0.068575
     85 H34          2.9310     0.0060     0.1110 hc         0 ASB       0.052033
     86 H35          3.6030    -1.0160     1.4040 hc         0 ASB       0.052033
     87 H36          3.4870     0.7450     1.6320 hc         0 ASB       0.052033
     88 H37         -2.9210     0.3280    -0.6210 hc         0 ASB       0.052033
     89 H38         -3.5810    -0.4110    -2.1000 hc         0 ASB       0.052033
     90 H39         -3.7630     1.3370    -1.8210 hc         0 ASB       0.052033
@<TRIPOS>BOND
     1     1     2 1   
     2     1    51 1   
     3     1    52 1   
     4     1    53 1   
     5     2     3 ar  
     6     2    46 ar  
     7     3     4 ar  
     8     3    54 1   
     9     4     5 1   
    10     4     6 ar  
    11     5    55 1   
    12     5    56 1   
    13     5    57 1   
    14     6     7 1   
    15     6    47 ar  
    16     7     8 1   
    17     7    58 1   
    18     7    59 1   
    19     8     9 1   
    20     8    60 1   
    21     9    10 2   
    22     9    11 1   
    23    11    12 ar  
    24    11    18 ar  
    25    12    13 1   
    26    12    14 ar  
    27    13    61 1   
    28    14    15 ar  
    29    14    62 1   
    30    15    16 ar  
    31    15    19 1   
    32    16    17 1   
    33    16    18 ar  
    34    17    63 1   
    35    18    64 1   
    36    19    20 2   
    37    19    21 1   
    38    21    22 1   
    39    21    65 1   
    40    22    23 1   
    41    22    66 1   
    42    22    67 1   
    43    23    24 ar  
    44    23    49 ar  
    45    24    25 1   
    46    24    26 ar  
    47    25    68 1   
    48    25    69 1   
    49    25    70 1   
    50    26    27 ar  
    51    26    71 1   
    52    27    28 1   
    53    27    29 ar  
    54    28    72 1   
    55    28    73 1   
    56    28    74 1   
    57    29    30 1   
    58    29    49 ar  
    59    30    31 1   
    60    30    75 1   
    61    30    76 1   
    62    31    32 1   
    63    31    77 1   
    64    32    33 2   
    65    32    34 1   
    66    34    35 ar  
    67    34    41 ar  
    68    35    36 1   
    69    35    37 ar  
    70    36    78 1   
    71    37    38 ar  
    72    37    79 1   
    73    38    39 ar  
    74    38    42 1   
    75    39    40 1   
    76    39    41 ar  
    77    40    80 1   
    78    41    81 1   
    79    42    43 2   
    80    42    44 1   
    81    44    45 1   
    82    44    82 1   
    83    45    46 1   
    84    45    83 1   
    85    45    84 1   
    86    46    47 ar  
    87    47    48 1   
    88    48    85 1   
    89    48    86 1   
    90    48    87 1   
    91    49    50 1   
    92    50    88 1   
    93    50    89 1   
    94    50    90 1   
@<TRIPOS>SUBSTRUCTURE
     1 ASB         1 TEMP              0 ****  ****    0 ROOT
