@<TRIPOS>MOLECULE
169
  243   255     1     0     0
SMALL
bcc


@<TRIPOS>ATOM
      1 C            0.3980    -2.4720    -1.4850 c3         0 169       0.103367
      2 O            0.1230    -3.6510    -2.2430 os         0 169      -0.354900
      3 C1          -1.2300    -3.7580    -2.3260 ca         0 169       0.094433
      4 C2          -1.9110    -3.1640    -3.3800 ca         0 169      -0.075133
      5 C3          -1.1490    -2.4080    -4.4350 c3         0 169       0.011367
      6 C4          -1.7680    -1.0580    -4.6770 ca         0 169      -0.079633
      7 C5          -2.9730    -0.9600    -5.3450 ca         0 169      -0.127167
      8 C6          -3.5320     0.2810    -5.5900 ca         0 169      -0.069300
      9 C7          -2.8810     1.4280    -5.1760 ca         0 169      -0.127167
     10 C8          -1.6740     1.3380    -4.5080 ca         0 169      -0.079633
     11 C9          -1.1320     0.0920    -4.2250 ca         0 169       0.100433
     12 O1          -0.0080    -0.0130    -3.4740 os         0 169      -0.342900
     13 C10          1.0960     0.4650    -4.2390 c3         0 169       0.122733
     14 C11          2.3870     0.2320    -3.4450 c3         0 169       0.153800
     15 N            3.5010     0.9030    -4.1260 n3         0 169      -0.826867
     16 C12          4.6870     0.7220    -3.2760 c3         0 169       0.203433
     17 C13          5.7740     0.0690    -4.0920 ca         0 169      -0.090967
     18 C14          7.1030     0.3080    -3.7940 ca         0 169      -0.074967
     19 C15          7.4640     1.2280    -2.6600 c3         0 169       0.004533
     20 C16          7.3770     0.5080    -1.3420 ca         0 169      -0.071967
     21 C17          7.3970     1.2280    -0.1600 ca         0 169      -0.131000
     22 C18          7.3460     0.5670     1.0540 ca         0 169      -0.071967
     23 C19          7.2780    -0.8110     1.0790 ca         0 169      -0.131000
     24 C20          7.2430    -1.5350    -0.0980 ca         0 169      -0.071967
     25 C21          7.1710    -3.0390    -0.0420 c3         0 169       0.004533
     26 C22          7.1070    -3.4820     1.3980 ca         0 169      -0.074967
     27 C23          5.8920    -3.7940     1.9790 ca         0 169      -0.090967
     28 C24          4.6240    -3.7030     1.1690 c3         0 169       0.203433
     29 N1           3.4720    -4.0050     2.0270 n3         0 169      -0.826867
     30 C25          2.2780    -3.9520     1.1710 c3         0 169       0.153800
     31 C26          1.0320    -4.1540     2.0380 c3         0 169       0.122733
     32 O2          -0.0080    -3.2840     1.5920 os         0 169      -0.342900
     33 C27         -1.1920    -3.8410     1.9540 ca         0 169       0.100433
     34 C28         -1.7520    -3.5470     3.1900 ca         0 169      -0.079633
     35 C29         -1.0350    -2.6320     4.1480 c3         0 169       0.011367
     36 C30         -1.7710    -1.3230     4.2670 ca         0 169      -0.075133
     37 C31         -3.1490    -1.3050     4.3380 ca         0 169      -0.120000
     38 C32         -3.8200    -0.1010     4.4450 ca         0 169      -0.067967
     39 C33         -3.1110     1.0860     4.4800 ca         0 169      -0.120000
     40 C34         -1.7300     1.0740     4.4080 ca         0 169      -0.075133
     41 C35         -0.9590     2.3680     4.4520 c3         0 169       0.011367
     42 C36         -1.5880     3.3850     3.5370 ca         0 169      -0.079633
     43 C37         -2.7680     4.0070     3.8960 ca         0 169      -0.127167
     44 C38         -3.3320     4.9590     3.0660 ca         0 169      -0.069300
     45 C39         -2.7150     5.2900     1.8740 ca         0 169      -0.127167
     46 C40         -1.5430     4.6610     1.5020 ca         0 169      -0.079633
     47 C41         -0.8510     5.0430     0.2210 c3         0 169       0.011367
     48 C42         -1.6160     4.5160    -0.9630 ca         0 169      -0.075133
     49 C43         -0.9510     3.8160    -1.9570 ca         0 169       0.094433
     50 O3           0.3870     3.6000    -1.8600 os         0 169      -0.354900
     51 C44          0.5550     2.3630    -1.1640 c3         0 169       0.103367
     52 C45         -1.6560     3.3350    -3.0540 ca         0 169      -0.075133
     53 C46         -0.9290     2.5910    -4.1350 c3         0 169       0.011367
     54 C47         -3.0170     3.5580    -3.1470 ca         0 169      -0.120000
     55 C48         -3.6760     4.2540    -2.1510 ca         0 169      -0.067967
     56 C49         -2.9770     4.7310    -1.0590 ca         0 169      -0.120000
     57 C50         -5.1600     4.4940    -2.2570 c3         0 169      -0.005700
     58 C51         -5.8910     3.1510    -2.3170 c3         0 169      -0.087433
     59 C52         -5.6380     5.2810    -1.0350 c3         0 169      -0.087433
     60 C53         -5.4590     5.2930    -3.5270 c3         0 169      -0.087433
     61 C54         -0.9860     3.6920     2.3240 ca         0 169       0.100433
     62 O4           0.1320     3.0290     1.9300 os         0 169      -0.342900
     63 C55          1.2610     3.7830     2.3720 c3         0 169       0.122733
     64 C56          2.4890     2.8690     2.4260 c3         0 169       0.153800
     65 N2           3.6960     3.6640     2.1550 n3         0 169      -0.826867
     66 C57          4.8360     2.7410     2.2260 c3         0 169       0.203433
     67 C58          6.1170     3.4870     1.9540 ca         0 169      -0.090967
     68 C59          7.3250     2.8180     2.0070 ca         0 169      -0.074967
     69 C60          7.3630     1.3500     2.3420 c3         0 169       0.004533
     70 C61          8.5020     3.4910     1.7460 ca         0 169      -0.126333
     71 C62          8.4740     4.8380     1.4370 ca         0 169      -0.130667
     72 C63          7.2670     5.5110     1.3940 ca         0 169      -0.130333
     73 C64          6.0870     4.8360     1.6500 ca         0 169      -0.122333
     74 C65         -4.6200     5.6350     3.4610 c3         0 169      -0.008700
     75 C66         -4.4240     6.3710     4.7880 c3         0 169      -0.086767
     76 C67         -5.0230     6.6370     2.3770 c3         0 169      -0.086767
     77 C68         -5.7200     4.5840     3.6190 c3         0 169      -0.086767
     78 C69         -1.0570    -0.1350     4.3030 ca         0 169       0.094433
     79 O5           0.3010    -0.1540     4.2370 os         0 169      -0.354900
     80 C70          0.7790    -0.2410     5.5800 c3         0 169       0.103367
     81 C71         -5.3250    -0.0810     4.5250 c3         0 169      -0.005700
     82 C72         -5.7810    -0.8700     5.7540 c3         0 169      -0.087433
     83 C73         -5.8110     1.3650     4.6380 c3         0 169      -0.087433
     84 C74         -5.9110    -0.7190     3.2640 c3         0 169      -0.087433
     85 C75         -2.9650    -4.1050     3.5410 ca         0 169      -0.127167
     86 C76         -3.6200    -4.9600     2.6730 ca         0 169      -0.069300
     87 C77         -3.0500    -5.2660     1.4500 ca         0 169      -0.127167
     88 C78         -1.8330    -4.7210     1.0930 ca         0 169      -0.079633
     89 C79         -1.1870    -5.1010    -0.2140 c3         0 169       0.011367
     90 C80         -1.9310    -4.4640    -1.3600 ca         0 169      -0.075133
     91 C81         -3.3040    -4.5830    -1.4490 ca         0 169      -0.120000
     92 C82         -3.9830    -3.9940    -2.5000 ca         0 169      -0.067967
     93 C83         -3.2860    -3.2790    -3.4620 ca         0 169      -0.120000
     94 C84         -5.4810    -4.1240    -2.5950 c3         0 169      -0.005700
     95 C85         -6.1270    -3.5140    -1.3490 c3         0 169      -0.087433
     96 C86         -5.9790    -3.3880    -3.8400 c3         0 169      -0.087433
     97 C87         -5.8590    -5.6040    -2.6930 c3         0 169      -0.087433
     98 C88         -4.9500    -5.5550     3.0570 c3         0 169      -0.008700
     99 C89         -5.9610    -4.4320     3.3010 c3         0 169      -0.086767
    100 C90         -5.4520    -6.4560     1.9270 c3         0 169      -0.086767
    101 C91         -4.7890    -6.3810     4.3350 c3         0 169      -0.086767
    102 C92          5.8420    -4.1920     3.3020 ca         0 169      -0.122333
    103 C93          7.0050    -4.2880     4.0430 ca         0 169      -0.130333
    104 C94          8.2200    -3.9850     3.4580 ca         0 169      -0.130667
    105 C95          8.2710    -3.5820     2.1370 ca         0 169      -0.126333
    106 C96          7.2810    -0.8710    -1.3090 ca         0 169      -0.131000
    107 C97          8.0970    -0.2890    -4.5510 ca         0 169      -0.126333
    108 C98          7.7600    -1.1220    -5.6000 ca         0 169      -0.130667
    109 C99          6.4320    -1.3620    -5.8990 ca         0 169      -0.130333
    110 C100         5.4390    -0.7640    -5.1460 ca         0 169      -0.122333
    111 C101        -4.8530     0.3830    -6.3080 c3         0 169      -0.008700
    112 C102        -5.9270    -0.3560    -5.5070 c3         0 169      -0.086767
    113 C103        -5.2440     1.8550    -6.4490 c3         0 169      -0.086767
    114 C104        -4.7280    -0.2470    -7.6970 c3         0 169      -0.086767
    115 H            1.4770    -2.3430    -1.3920 h1         0 169       0.047256
    116 H1          -0.0280    -1.6060    -1.9920 h1         0 169       0.047256
    117 H2          -0.0440    -2.5660    -0.4930 h1         0 169       0.047256
    118 H3          -0.1180    -2.2760    -4.1070 hc         0 169       0.066200
    119 H4          -1.1590    -2.9790    -5.3630 hc         0 169       0.066200
    120 H5          -3.4800    -1.8540    -5.6780 ha         0 169       0.136667
    121 H6          -3.3160     2.3960    -5.3750 ha         0 169       0.136667
    122 H7           1.1470    -0.0740    -5.1850 h1         0 169       0.041867
    123 H8           0.9740     1.5310    -4.4310 h1         0 169       0.041867
    124 H9           2.2750     0.6390    -2.4400 h1         0 169       0.051200
    125 H10          2.5890    -0.8380    -3.3850 h1         0 169       0.051200
    126 H11          3.6730     0.3900    -4.9770 hn         0 169       0.362800
    127 H12          5.0320     1.6920    -2.9180 h1         0 169       0.052867
    128 H13          4.4350     0.0850    -2.4280 h1         0 169       0.052867
    129 H14          8.4810     1.5920    -2.8040 hc         0 169       0.059200
    130 H15          6.7780     2.0750    -2.6530 hc         0 169       0.059200
    131 H16          7.4530     2.3070    -0.1850 ha         0 169       0.141000
    132 H17          7.2520    -1.3280     2.0270 ha         0 169       0.141000
    133 H18          6.2790    -3.3800    -0.5680 hc         0 169       0.059200
    134 H19          8.0560    -3.4630    -0.5150 hc         0 169       0.059200
    135 H20          4.5220    -2.6950     0.7660 h1         0 169       0.052867
    136 H21          4.6650    -4.4200     0.3490 h1         0 169       0.052867
    137 H22          3.5740    -4.9650     2.3220 hn         0 169       0.362800
    138 H23          2.2260    -2.9810     0.6780 h1         0 169       0.051200
    139 H24          2.3320    -4.7400     0.4200 h1         0 169       0.051200
    140 H25          0.6980    -5.1890     1.9580 h1         0 169       0.041867
    141 H26          1.2720    -3.9310     3.0770 h1         0 169       0.041867
    142 H27         -0.9800    -3.1060     5.1280 hc         0 169       0.066200
    143 H28         -0.0250    -2.4460     3.7830 hc         0 169       0.066200
    144 H29         -3.7040    -2.2310     4.3080 ha         0 169       0.139667
    145 H30         -3.6370     2.0260     4.5630 ha         0 169       0.139667
    146 H31         -0.9580     2.7520     5.4720 hc         0 169       0.066200
    147 H32          0.0680     2.1860     4.1370 hc         0 169       0.066200
    148 H33         -3.2520     3.7490     4.8260 ha         0 169       0.136667
    149 H34         -3.1500     6.0430     1.2330 ha         0 169       0.136667
    150 H35         -0.7870     6.1290     0.1550 hc         0 169       0.066200
    151 H36          0.1550     4.6240     0.2150 hc         0 169       0.066200
    152 H37          1.6190     2.1460    -1.0610 h1         0 169       0.047256
    153 H38          0.1020     2.4370    -0.1760 h1         0 169       0.047256
    154 H39          0.0740     1.5620    -1.7250 h1         0 169       0.047256
    155 H40          0.0680     2.3280    -3.7810 hc         0 169       0.066200
    156 H41         -0.8400     3.2310    -5.0130 hc         0 169       0.066200
    157 H42         -3.5660     3.1880    -4.0010 ha         0 169       0.139667
    158 H43         -3.4940     5.2710    -0.2790 ha         0 169       0.139667
    159 H44         -5.6790     2.5810    -1.4120 hc         0 169       0.036774
    160 H45         -6.9640     3.3240    -2.3930 hc         0 169       0.036774
    161 H46         -5.5500     2.5900    -3.1870 hc         0 169       0.036774
    162 H47         -5.1180     6.2370    -0.9930 hc         0 169       0.036774
    163 H48         -6.7120     5.4540    -1.1120 hc         0 169       0.036774
    164 H49         -5.4260     4.7110    -0.1300 hc         0 169       0.036774
    165 H50         -5.1180     4.7330    -4.3980 hc         0 169       0.036774
    166 H51         -6.5320     5.4670    -3.6040 hc         0 169       0.036774
    167 H52         -4.9380     6.2500    -3.4850 hc         0 169       0.036774
    168 H53          1.4460     4.6020     1.6770 h1         0 169       0.041867
    169 H54          1.0630     4.1860     3.3660 h1         0 169       0.041867
    170 H55          2.5650     2.4180     3.4150 h1         0 169       0.051200
    171 H56          2.3930     2.0860     1.6740 h1         0 169       0.051200
    172 H57          3.6320     3.9710     1.1960 hn         0 169       0.362800
    173 H58          4.8800     2.2970     3.2210 h1         0 169       0.052867
    174 H59          4.7110     1.9530     1.4840 h1         0 169       0.052867
    175 H60          6.4930     1.0890     2.9440 hc         0 169       0.059200
    176 H61          8.2750     1.1250     2.8960 hc         0 169       0.059200
    177 H62          9.4450     2.9660     1.7840 ha         0 169       0.133000
    178 H63          9.3940     5.3640     1.2290 ha         0 169       0.132333
    179 H64          7.2450     6.5660     1.1610 ha         0 169       0.132333
    180 H65          5.1440     5.3620     1.6130 ha         0 169       0.138667
    181 H66         -3.6400     7.1200     4.6760 hc         0 169       0.037256
    182 H67         -5.3550     6.8600     5.0730 hc         0 169       0.037256
    183 H68         -4.1360     5.6570     5.5600 hc         0 169       0.037256
    184 H69         -5.1630     6.1130     1.4320 hc         0 169       0.037256
    185 H70         -5.9550     7.1260     2.6630 hc         0 169       0.037256
    186 H71         -4.2390     7.3860     2.2650 hc         0 169       0.037256
    187 H72         -5.4330     3.8700     4.3910 hc         0 169       0.037256
    188 H73         -6.6520     5.0730     3.9040 hc         0 169       0.037256
    189 H74         -5.8600     4.0600     2.6730 hc         0 169       0.037256
    190 H75          1.8690    -0.2600     5.5780 h1         0 169       0.047256
    191 H76          0.4320     0.6230     6.1460 h1         0 169       0.047256
    192 H77          0.4010    -1.1540     6.0420 h1         0 169       0.047256
    193 H78         -5.3640    -0.4150     6.6530 hc         0 169       0.036774
    194 H79         -6.8690    -0.8560     5.8120 hc         0 169       0.036774
    195 H80         -5.4350    -1.9000     5.6740 hc         0 169       0.036774
    196 H81         -5.4860     1.9270     3.7620 hc         0 169       0.036774
    197 H82         -6.9000     1.3790     4.6950 hc         0 169       0.036774
    198 H83         -5.3940     1.8200     5.5360 hc         0 169       0.036774
    199 H84         -5.5640    -1.7500     3.1830 hc         0 169       0.036774
    200 H85         -6.9990    -0.7050     3.3210 hc         0 169       0.036774
    201 H86         -5.5860    -0.1570     2.3880 hc         0 169       0.036774
    202 H87         -3.4060    -3.8740     4.5000 ha         0 169       0.136667
    203 H88         -3.5600    -5.9350     0.7720 ha         0 169       0.136667
    204 H89         -0.1520    -4.7600    -0.2190 hc         0 169       0.066200
    205 H90         -1.2100    -6.1850    -0.3270 hc         0 169       0.066200
    206 H91         -3.8470    -5.1350    -0.6970 ha         0 169       0.139667
    207 H92         -3.8170    -2.8160    -4.2800 ha         0 169       0.139667
    208 H93         -5.8570    -2.4600    -1.2800 hc         0 169       0.036774
    209 H94         -7.2100    -3.6080    -1.4180 hc         0 169       0.036774
    210 H95         -5.7720    -4.0390    -0.4620 hc         0 169       0.036774
    211 H96         -5.5200    -3.8230    -4.7280 hc         0 169       0.036774
    212 H97         -7.0630    -3.4820    -3.9090 hc         0 169       0.036774
    213 H98         -5.7100    -2.3340    -3.7710 hc         0 169       0.036774
    214 H99         -5.5050    -6.1290    -1.8050 hc         0 169       0.036774
    215 H100        -6.9430    -5.6980    -2.7610 hc         0 169       0.036774
    216 H101        -5.4000    -6.0390    -3.5800 hc         0 169       0.036774
    217 H102        -6.0760    -3.8430     2.3900 hc         0 169       0.037256
    218 H103        -6.9220    -4.8630     3.5790 hc         0 169       0.037256
    219 H104        -5.6030    -3.7900     4.1060 hc         0 169       0.037256
    220 H105        -4.7320    -7.2560     1.7530 hc         0 169       0.037256
    221 H106        -6.4140    -6.8870     2.2050 hc         0 169       0.037256
    222 H107        -5.5670    -5.8670     1.0170 hc         0 169       0.037256
    223 H108        -4.4320    -5.7400     5.1400 hc         0 169       0.037256
    224 H109        -5.7510    -6.8120     4.6130 hc         0 169       0.037256
    225 H110        -4.0690    -7.1820     4.1610 hc         0 169       0.037256
    226 H111         4.8920    -4.4290     3.7580 ha         0 169       0.138667
    227 H112         6.9650    -4.5990     5.0770 ha         0 169       0.132333
    228 H113         9.1310    -4.0620     4.0340 ha         0 169       0.132333
    229 H114         9.2210    -3.3460     1.6820 ha         0 169       0.133000
    230 H115         7.2370    -1.4300    -2.2320 ha         0 169       0.141000
    231 H116         9.1360    -0.1030    -4.3200 ha         0 169       0.133000
    232 H117         8.5370    -1.5860    -6.1890 ha         0 169       0.132333
    233 H118         6.1710    -2.0150    -6.7190 ha         0 169       0.132333
    234 H119         4.4010    -0.9470    -5.3800 ha         0 169       0.138667
    235 H120        -6.0160     0.0930    -4.5180 hc         0 169       0.037256
    236 H121        -6.8830    -0.2820    -6.0270 hc         0 169       0.037256
    237 H122        -5.6480    -1.4050    -5.4070 hc         0 169       0.037256
    238 H123        -4.4790     2.3820    -7.0190 hc         0 169       0.037256
    239 H124        -6.2000     1.9290    -6.9680 hc         0 169       0.037256
    240 H125        -5.3330     2.3040    -5.4600 hc         0 169       0.037256
    241 H126        -4.4490    -1.2960    -7.5960 hc         0 169       0.037256
    242 H127        -5.6840    -0.1730    -8.2160 hc         0 169       0.037256
    243 H128        -3.9630     0.2790    -8.2670 hc         0 169       0.037256
@<TRIPOS>BOND
     1     1     2 1   
     2     1   115 1   
     3     1   116 1   
     4     1   117 1   
     5     2     3 1   
     6     3     4 ar  
     7     3    90 ar  
     8     4     5 1   
     9     4    93 ar  
    10     5     6 1   
    11     5   118 1   
    12     5   119 1   
    13     6     7 ar  
    14     6    11 ar  
    15     7     8 ar  
    16     7   120 1   
    17     8     9 ar  
    18     8   111 1   
    19     9    10 ar  
    20     9   121 1   
    21    10    11 ar  
    22    10    53 1   
    23    11    12 1   
    24    12    13 1   
    25    13    14 1   
    26    13   122 1   
    27    13   123 1   
    28    14    15 1   
    29    14   124 1   
    30    14   125 1   
    31    15    16 1   
    32    15   126 1   
    33    16    17 1   
    34    16   127 1   
    35    16   128 1   
    36    17    18 ar  
    37    17   110 ar  
    38    18    19 1   
    39    18   107 ar  
    40    19    20 1   
    41    19   129 1   
    42    19   130 1   
    43    20    21 ar  
    44    20   106 ar  
    45    21    22 ar  
    46    21   131 1   
    47    22    23 ar  
    48    22    69 1   
    49    23    24 ar  
    50    23   132 1   
    51    24    25 1   
    52    24   106 ar  
    53    25    26 1   
    54    25   133 1   
    55    25   134 1   
    56    26    27 ar  
    57    26   105 ar  
    58    27    28 1   
    59    27   102 ar  
    60    28    29 1   
    61    28   135 1   
    62    28   136 1   
    63    29    30 1   
    64    29   137 1   
    65    30    31 1   
    66    30   138 1   
    67    30   139 1   
    68    31    32 1   
    69    31   140 1   
    70    31   141 1   
    71    32    33 1   
    72    33    34 ar  
    73    33    88 ar  
    74    34    35 1   
    75    34    85 ar  
    76    35    36 1   
    77    35   142 1   
    78    35   143 1   
    79    36    37 ar  
    80    36    78 ar  
    81    37    38 ar  
    82    37   144 1   
    83    38    39 ar  
    84    38    81 1   
    85    39    40 ar  
    86    39   145 1   
    87    40    41 1   
    88    40    78 ar  
    89    41    42 1   
    90    41   146 1   
    91    41   147 1   
    92    42    43 ar  
    93    42    61 ar  
    94    43    44 ar  
    95    43   148 1   
    96    44    45 ar  
    97    44    74 1   
    98    45    46 ar  
    99    45   149 1   
   100    46    47 1   
   101    46    61 ar  
   102    47    48 1   
   103    47   150 1   
   104    47   151 1   
   105    48    49 ar  
   106    48    56 ar  
   107    49    50 1   
   108    49    52 ar  
   109    50    51 1   
   110    51   152 1   
   111    51   153 1   
   112    51   154 1   
   113    52    53 1   
   114    52    54 ar  
   115    53   155 1   
   116    53   156 1   
   117    54    55 ar  
   118    54   157 1   
   119    55    56 ar  
   120    55    57 1   
   121    56   158 1   
   122    57    58 1   
   123    57    59 1   
   124    57    60 1   
   125    58   159 1   
   126    58   160 1   
   127    58   161 1   
   128    59   162 1   
   129    59   163 1   
   130    59   164 1   
   131    60   165 1   
   132    60   166 1   
   133    60   167 1   
   134    61    62 1   
   135    62    63 1   
   136    63    64 1   
   137    63   168 1   
   138    63   169 1   
   139    64    65 1   
   140    64   170 1   
   141    64   171 1   
   142    65    66 1   
   143    65   172 1   
   144    66    67 1   
   145    66   173 1   
   146    66   174 1   
   147    67    68 ar  
   148    67    73 ar  
   149    68    69 1   
   150    68    70 ar  
   151    69   175 1   
   152    69   176 1   
   153    70    71 ar  
   154    70   177 1   
   155    71    72 ar  
   156    71   178 1   
   157    72    73 ar  
   158    72   179 1   
   159    73   180 1   
   160    74    75 1   
   161    74    76 1   
   162    74    77 1   
   163    75   181 1   
   164    75   182 1   
   165    75   183 1   
   166    76   184 1   
   167    76   185 1   
   168    76   186 1   
   169    77   187 1   
   170    77   188 1   
   171    77   189 1   
   172    78    79 1   
   173    79    80 1   
   174    80   190 1   
   175    80   191 1   
   176    80   192 1   
   177    81    82 1   
   178    81    83 1   
   179    81    84 1   
   180    82   193 1   
   181    82   194 1   
   182    82   195 1   
   183    83   196 1   
   184    83   197 1   
   185    83   198 1   
   186    84   199 1   
   187    84   200 1   
   188    84   201 1   
   189    85    86 ar  
   190    85   202 1   
   191    86    87 ar  
   192    86    98 1   
   193    87    88 ar  
   194    87   203 1   
   195    88    89 1   
   196    89    90 1   
   197    89   204 1   
   198    89   205 1   
   199    90    91 ar  
   200    91    92 ar  
   201    91   206 1   
   202    92    93 ar  
   203    92    94 1   
   204    93   207 1   
   205    94    95 1   
   206    94    96 1   
   207    94    97 1   
   208    95   208 1   
   209    95   209 1   
   210    95   210 1   
   211    96   211 1   
   212    96   212 1   
   213    96   213 1   
   214    97   214 1   
   215    97   215 1   
   216    97   216 1   
   217    98    99 1   
   218    98   100 1   
   219    98   101 1   
   220    99   217 1   
   221    99   218 1   
   222    99   219 1   
   223   100   220 1   
   224   100   221 1   
   225   100   222 1   
   226   101   223 1   
   227   101   224 1   
   228   101   225 1   
   229   102   103 ar  
   230   102   226 1   
   231   103   104 ar  
   232   103   227 1   
   233   104   105 ar  
   234   104   228 1   
   235   105   229 1   
   236   106   230 1   
   237   107   108 ar  
   238   107   231 1   
   239   108   109 ar  
   240   108   232 1   
   241   109   110 ar  
   242   109   233 1   
   243   110   234 1   
   244   111   112 1   
   245   111   113 1   
   246   111   114 1   
   247   112   235 1   
   248   112   236 1   
   249   112   237 1   
   250   113   238 1   
   251   113   239 1   
   252   113   240 1   
   253   114   241 1   
   254   114   242 1   
   255   114   243 1   
@<TRIPOS>SUBSTRUCTURE
     1 169         1 TEMP              0 ****  ****    0 ROOT
