@<TRIPOS>MOLECULE
107
  160   175     1     0     0
SMALL
bcc


@<TRIPOS>ATOM
      1 C           -6.4610    10.6520    -0.3410 ca         0 107      -0.154800
      2 C1          -5.0860    10.6810    -0.1950 ca         0 107      -0.108200
      3 C2          -4.3780     9.5020    -0.0680 ca         0 107      -0.164400
      4 C3          -5.0490     8.2860    -0.0870 ca         0 107       0.151600
      5 C4          -6.4300     8.2600    -0.2330 ca         0 107      -0.164400
      6 C5          -7.1320     9.4430    -0.3600 ca         0 107      -0.108200
      7 N           -4.3350     7.0910     0.0410 nh         0 107      -0.437600
      8 C6          -2.9350     7.0870     0.0750 ca         0 107       0.141900
      9 C7          -2.2080     7.6930    -0.9380 ca         0 107      -0.149900
     10 C8          -0.8260     7.6520    -0.9140 ca         0 107      -0.106250
     11 C9          -0.1660     7.0260     0.1400 cp         0 107      -0.048600
     12 C10         -0.9020     6.4720     1.1900 ca         0 107      -0.106250
     13 C11         -2.2810     6.4970     1.1530 ca         0 107      -0.149900
     14 C12          1.3110     6.8850     0.1220 cp         0 107      -0.048600
     15 C13          2.0060     6.9930    -1.0820 ca         0 107      -0.106250
     16 C14          3.3740     6.8200    -1.0960 ca         0 107      -0.149900
     17 C15          4.0620     6.5650     0.0820 ca         0 107       0.141900
     18 C16          3.3740     6.5140     1.2930 ca         0 107      -0.149900
     19 C17          2.0040     6.6670     1.3100 ca         0 107      -0.106250
     20 N1           5.4310     6.3020     0.0480 nh         0 107      -0.437600
     21 C18          6.3450     7.3600     0.0810 ca         0 107       0.151600
     22 C19          7.5120     7.2480     0.8270 ca         0 107      -0.164400
     23 C20          8.4120     8.2940     0.8570 ca         0 107      -0.108200
     24 C21          8.1540     9.4520     0.1470 ca         0 107      -0.154800
     25 C22          6.9930     9.5670    -0.5960 ca         0 107      -0.108200
     26 C23          6.0900     8.5230    -0.6350 ca         0 107      -0.164400
     27 C24          5.8890     4.9920    -0.0190 ca         0 107       0.141900
     28 C25          6.2610     4.3880    -1.2020 ca         0 107      -0.149900
     29 C26          6.6660     3.0670    -1.2140 ca         0 107      -0.106250
     30 C27          6.6960     2.3420    -0.0220 cp         0 107      -0.048600
     31 C28          6.3710     2.9700     1.1800 ca         0 107      -0.106250
     32 C29          5.9680     4.2860     1.1860 ca         0 107      -0.149900
     33 C30          7.0240     0.8980    -0.0390 cp         0 107      -0.048600
     34 C31          7.3480     0.2770    -1.2440 ca         0 107      -0.106250
     35 C32          7.6060    -1.0770    -1.2680 ca         0 107      -0.149900
     36 C33          7.5410    -1.8230    -0.0950 ca         0 107       0.141900
     37 C34          7.2690    -1.1920     1.1150 ca         0 107      -0.149900
     38 C35          7.0130     0.1630     1.1440 ca         0 107      -0.106250
     39 N2           7.7080    -3.2050    -0.1490 nh         0 107      -0.437600
     40 C36          8.9880    -3.7540    -0.2680 ca         0 107       0.151600
     41 C37          9.3230    -4.9000     0.4420 ca         0 107      -0.164400
     42 C38         10.5890    -5.4400     0.3210 ca         0 107      -0.108200
     43 C39         11.5220    -4.8410    -0.5050 ca         0 107      -0.154800
     44 C40         11.1920    -3.6990    -1.2130 ca         0 107      -0.108200
     45 C41          9.9270    -3.1570    -1.1010 ca         0 107      -0.164400
     46 C42          6.5920    -4.0370    -0.0850 ca         0 107       0.141900
     47 C43          6.1890    -4.7760    -1.1830 ca         0 107      -0.149900
     48 C44          5.0520    -5.5550    -1.1220 ca         0 107      -0.106250
     49 C45          4.3170    -5.6120     0.0590 cp         0 107      -0.048600
     50 C46          4.7600    -4.9240     1.1890 ca         0 107      -0.106250
     51 C47          5.8900    -4.1360     1.1200 ca         0 107      -0.149900
     52 C48          3.0280    -6.3480     0.0890 cp         0 107      -0.048600
     53 C49          2.4270    -6.7310    -1.1100 ca         0 107      -0.106250
     54 C50          1.2120    -7.3800    -1.0910 ca         0 107      -0.149900
     55 C51          0.5910    -7.6690     0.1210 ca         0 107       0.141900
     56 C52          1.2170    -7.3310     1.3180 ca         0 107      -0.149900
     57 C53          2.4260    -6.6670     1.3030 ca         0 107      -0.106250
     58 N3          -0.6760    -8.2510     0.1220 nh         0 107      -0.437600
     59 C54         -0.8020    -9.6420     0.1500 ca         0 107       0.151600
     60 C55         -1.7920   -10.2370     0.9220 ca         0 107      -0.164400
     61 C56         -1.9140   -11.6120     0.9470 ca         0 107      -0.108200
     62 C57         -1.0520   -12.3980     0.2040 ca         0 107      -0.154800
     63 C58         -0.0650   -11.8100    -0.5660 ca         0 107      -0.108200
     64 C59          0.0590   -10.4350    -0.5990 ca         0 107      -0.164400
     65 C60         -1.8140    -7.4540     0.0960 ca         0 107       0.141900
     66 C61         -2.6140    -7.3490    -1.0230 ca         0 107      -0.149900
     67 C62         -3.7160    -6.5180    -1.0180 ca         0 107      -0.106250
     68 C63         -4.0220    -5.7820     0.1280 cp         0 107      -0.048600
     69 C64         -3.2420    -5.9300     1.2740 ca         0 107      -0.106250
     70 C65         -2.1400    -6.7560     1.2630 ca         0 107      -0.149900
     71 C66         -5.1420    -4.8140     0.1050 cp         0 107      -0.048600
     72 C67         -5.8680    -4.6230    -1.0700 ca         0 107      -0.106250
     73 C68         -6.8810    -3.6870    -1.1040 ca         0 107      -0.149900
     74 C69         -7.1780    -2.9370     0.0310 ca         0 107       0.141900
     75 C70         -6.4930    -3.1660     1.2160 ca         0 107      -0.149900
     76 C71         -5.4780    -4.1010     1.2540 ca         0 107      -0.106250
     77 N4          -8.1340    -1.9230    -0.0600 nh         0 107      -0.437600
     78 C72         -9.4800    -2.2410    -0.2620 ca         0 107       0.151600
     79 C73        -10.4710    -1.5320     0.4050 ca         0 107      -0.164400
     80 C74        -11.8000    -1.8490     0.2030 ca         0 107      -0.108200
     81 C75        -12.1450    -2.8700    -0.6640 ca         0 107      -0.154800
     82 C76        -11.1610    -3.5780    -1.3300 ca         0 107      -0.108200
     83 C77         -9.8300    -3.2630    -1.1360 ca         0 107      -0.164400
     84 C78         -7.7370    -0.5890     0.0530 ca         0 107       0.141900
     85 C79         -8.2190     0.3730    -0.8190 ca         0 107      -0.149900
     86 C80         -7.7660     1.6750    -0.7430 ca         0 107      -0.106250
     87 C81         -6.8400     2.0260     0.2380 cp         0 107      -0.048600
     88 C82         -6.4280     1.0810     1.1750 ca         0 107      -0.106250
     89 C83         -6.8700    -0.2250     1.0860 ca         0 107      -0.149900
     90 C84         -6.2320     3.3760     0.2250 cp         0 107      -0.048600
     91 C85         -5.5150     3.8430     1.3250 ca         0 107      -0.106250
     92 C86         -4.9040     5.0820     1.2830 ca         0 107      -0.149900
     93 C87         -5.0020     5.8560     0.1440 ca         0 107       0.141900
     94 C88         -5.7530     5.4150    -0.9400 ca         0 107      -0.149900
     95 C89         -6.3680     4.1820    -0.9080 ca         0 107      -0.106250
     96 H           -7.0120    11.5750    -0.4360 ha         0 107       0.132800
     97 H1          -4.5650    11.6270    -0.1800 ha         0 107       0.132600
     98 H2          -3.3040     9.5260     0.0450 ha         0 107       0.144300
     99 H3          -6.9540     7.3160    -0.2490 ha         0 107       0.144300
    100 H4          -8.2050     9.4230    -0.4740 ha         0 107       0.132600
    101 H5          -2.7200     8.1970    -1.7450 ha         0 107       0.146700
    102 H6          -0.2590     8.1060    -1.7120 ha         0 107       0.137550
    103 H7          -0.3910     6.0250     2.0300 ha         0 107       0.137550
    104 H8          -2.8510     6.0600     1.9590 ha         0 107       0.146700
    105 H9           1.4760     7.2090    -1.9980 ha         0 107       0.137550
    106 H10          3.9130     6.8840    -2.0300 ha         0 107       0.146700
    107 H11          3.9120     6.3550     2.2160 ha         0 107       0.146700
    108 H12          1.4680     6.6170     2.2460 ha         0 107       0.137550
    109 H13          7.7140     6.3440     1.3820 ha         0 107       0.144300
    110 H14          9.3200     8.2080     1.4360 ha         0 107       0.132600
    111 H15          8.8600    10.2690     0.1730 ha         0 107       0.132800
    112 H16          6.7940    10.4730    -1.1490 ha         0 107       0.132600
    113 H17          5.1840     8.6130    -1.2150 ha         0 107       0.144300
    114 H18          6.2350     4.9500    -2.1240 ha         0 107       0.146700
    115 H19          6.9580     2.5980    -2.1410 ha         0 107       0.137550
    116 H20          6.4360     2.4220     2.1090 ha         0 107       0.137550
    117 H21          5.7150     4.7710     2.1170 ha         0 107       0.146700
    118 H22          7.3990     0.8540    -2.1550 ha         0 107       0.137550
    119 H23          7.8580    -1.5600    -2.2000 ha         0 107       0.146700
    120 H24          7.2590    -1.7640     2.0310 ha         0 107       0.146700
    121 H25          6.8050     0.6530     2.0840 ha         0 107       0.137550
    122 H26          8.5950    -5.3680     1.0870 ha         0 107       0.144300
    123 H27         10.8500    -6.3310     0.8730 ha         0 107       0.132600
    124 H28         12.5110    -5.2650    -0.5970 ha         0 107       0.132800
    125 H29         11.9240    -3.2340    -1.8560 ha         0 107       0.132600
    126 H30          9.6700    -2.2660    -1.6550 ha         0 107       0.144300
    127 H31          6.7670    -4.7420    -2.0940 ha         0 107       0.146700
    128 H32          4.7340    -6.1190    -1.9870 ha         0 107       0.137550
    129 H33          4.2170    -5.0090     2.1190 ha         0 107       0.137550
    130 H34          6.2300    -3.5970     1.9920 ha         0 107       0.146700
    131 H35          2.9130    -6.5180    -2.0510 ha         0 107       0.137550
    132 H36          0.7390    -7.6650    -2.0190 ha         0 107       0.146700
    133 H37          0.7550    -7.5880     2.2590 ha         0 107       0.146700
    134 H38          2.9050    -6.3950     2.2320 ha         0 107       0.137550
    135 H39         -2.4660    -9.6240     1.5030 ha         0 107       0.144300
    136 H40         -2.6840   -12.0740     1.5470 ha         0 107       0.132600
    137 H41         -1.1500   -13.4730     0.2250 ha         0 107       0.132800
    138 H42          0.6070   -12.4260    -1.1440 ha         0 107       0.132600
    139 H43          0.8300    -9.9760    -1.2010 ha         0 107       0.144300
    140 H44         -2.3770    -7.9200    -1.9090 ha         0 107       0.146700
    141 H45         -4.3390    -6.4380    -1.8970 ha         0 107       0.137550
    142 H46         -3.5030    -5.3940     2.1750 ha         0 107       0.137550
    143 H47         -1.5320    -6.8640     2.1490 ha         0 107       0.146700
    144 H48         -5.6380    -5.2050    -1.9500 ha         0 107       0.137550
    145 H49         -7.4440    -3.5360    -2.0130 ha         0 107       0.146700
    146 H50         -6.7520    -2.6130     2.1070 ha         0 107       0.146700
    147 H51         -4.9430    -4.2800     2.1750 ha         0 107       0.137550
    148 H52        -10.2020    -0.7350     1.0820 ha         0 107       0.144300
    149 H53        -12.5710    -1.2980     0.7220 ha         0 107       0.132600
    150 H54        -13.1850    -3.1160    -0.8200 ha         0 107       0.132800
    151 H55        -11.4330    -4.3750    -2.0050 ha         0 107       0.132600
    152 H56         -9.0620    -3.8160    -1.6560 ha         0 107       0.144300
    153 H57         -8.9540     0.1040    -1.5620 ha         0 107       0.146700
    154 H58         -8.1280     2.4170    -1.4390 ha         0 107       0.137550
    155 H59         -5.7620     1.3700     1.9750 ha         0 107       0.137550
    156 H60         -6.5490    -0.9580     1.8100 ha         0 107       0.146700
    157 H61         -5.4370     3.2350     2.2140 ha         0 107       0.137550
    158 H62         -4.3510     5.4430     2.1380 ha         0 107       0.146700
    159 H63         -5.8550     6.0410    -1.8140 ha         0 107       0.146700
    160 H64         -6.9510     3.8440    -1.7520 ha         0 107       0.137550
@<TRIPOS>BOND
     1     1     2 ar  
     2     1     6 ar  
     3     1    96 1   
     4     2     3 ar  
     5     2    97 1   
     6     3     4 ar  
     7     3    98 1   
     8     4     5 ar  
     9     4     7 1   
    10     5     6 ar  
    11     5    99 1   
    12     6   100 1   
    13     7     8 1   
    14     7    93 1   
    15     8     9 ar  
    16     8    13 ar  
    17     9    10 ar  
    18     9   101 1   
    19    10    11 ar  
    20    10   102 1   
    21    11    12 ar  
    22    11    14 1   
    23    12    13 ar  
    24    12   103 1   
    25    13   104 1   
    26    14    15 ar  
    27    14    19 ar  
    28    15    16 ar  
    29    15   105 1   
    30    16    17 ar  
    31    16   106 1   
    32    17    18 ar  
    33    17    20 1   
    34    18    19 ar  
    35    18   107 1   
    36    19   108 1   
    37    20    21 1   
    38    20    27 1   
    39    21    22 ar  
    40    21    26 ar  
    41    22    23 ar  
    42    22   109 1   
    43    23    24 ar  
    44    23   110 1   
    45    24    25 ar  
    46    24   111 1   
    47    25    26 ar  
    48    25   112 1   
    49    26   113 1   
    50    27    28 ar  
    51    27    32 ar  
    52    28    29 ar  
    53    28   114 1   
    54    29    30 ar  
    55    29   115 1   
    56    30    31 ar  
    57    30    33 1   
    58    31    32 ar  
    59    31   116 1   
    60    32   117 1   
    61    33    34 ar  
    62    33    38 ar  
    63    34    35 ar  
    64    34   118 1   
    65    35    36 ar  
    66    35   119 1   
    67    36    37 ar  
    68    36    39 1   
    69    37    38 ar  
    70    37   120 1   
    71    38   121 1   
    72    39    40 1   
    73    39    46 1   
    74    40    41 ar  
    75    40    45 ar  
    76    41    42 ar  
    77    41   122 1   
    78    42    43 ar  
    79    42   123 1   
    80    43    44 ar  
    81    43   124 1   
    82    44    45 ar  
    83    44   125 1   
    84    45   126 1   
    85    46    47 ar  
    86    46    51 ar  
    87    47    48 ar  
    88    47   127 1   
    89    48    49 ar  
    90    48   128 1   
    91    49    50 ar  
    92    49    52 1   
    93    50    51 ar  
    94    50   129 1   
    95    51   130 1   
    96    52    53 ar  
    97    52    57 ar  
    98    53    54 ar  
    99    53   131 1   
   100    54    55 ar  
   101    54   132 1   
   102    55    56 ar  
   103    55    58 1   
   104    56    57 ar  
   105    56   133 1   
   106    57   134 1   
   107    58    59 1   
   108    58    65 1   
   109    59    60 ar  
   110    59    64 ar  
   111    60    61 ar  
   112    60   135 1   
   113    61    62 ar  
   114    61   136 1   
   115    62    63 ar  
   116    62   137 1   
   117    63    64 ar  
   118    63   138 1   
   119    64   139 1   
   120    65    66 ar  
   121    65    70 ar  
   122    66    67 ar  
   123    66   140 1   
   124    67    68 ar  
   125    67   141 1   
   126    68    69 ar  
   127    68    71 1   
   128    69    70 ar  
   129    69   142 1   
   130    70   143 1   
   131    71    72 ar  
   132    71    76 ar  
   133    72    73 ar  
   134    72   144 1   
   135    73    74 ar  
   136    73   145 1   
   137    74    75 ar  
   138    74    77 1   
   139    75    76 ar  
   140    75   146 1   
   141    76   147 1   
   142    77    78 1   
   143    77    84 1   
   144    78    79 ar  
   145    78    83 ar  
   146    79    80 ar  
   147    79   148 1   
   148    80    81 ar  
   149    80   149 1   
   150    81    82 ar  
   151    81   150 1   
   152    82    83 ar  
   153    82   151 1   
   154    83   152 1   
   155    84    85 ar  
   156    84    89 ar  
   157    85    86 ar  
   158    85   153 1   
   159    86    87 ar  
   160    86   154 1   
   161    87    88 ar  
   162    87    90 1   
   163    88    89 ar  
   164    88   155 1   
   165    89   156 1   
   166    90    91 ar  
   167    90    95 ar  
   168    91    92 ar  
   169    91   157 1   
   170    92    93 ar  
   171    92   158 1   
   172    93    94 ar  
   173    94    95 ar  
   174    94   159 1   
   175    95   160 1   
@<TRIPOS>SUBSTRUCTURE
     1 107         1 TEMP              0 ****  ****    0 ROOT
