@<TRIPOS>MOLECULE
104
  126   140     1     0     0
SMALL
bcc


@<TRIPOS>ATOM
      1 O           -5.8490    -5.2580    -0.4330 o          0 104      -0.561500
      2 C           -4.7810    -4.7490    -0.1600 c          0 104       0.715100
      3 N           -4.5370    -3.4240     0.0130 n          0 104      -0.508900
      4 C1          -5.0650    -2.2960    -0.6870 c3         0 104       0.101000
      5 C2          -6.3280    -1.5650    -0.3130 c3         0 104      -0.057000
      6 C3          -7.0160    -1.2880    -1.6670 c3         0 104      -0.070400
      7 C4          -8.1660    -0.3090    -1.4500 c3         0 104      -0.055200
      8 C5          -9.1410    -0.8520    -0.4290 c3         0 104      -0.062400
      9 C6          -8.5470    -1.5370     0.7680 c3         0 104      -0.051200
     10 C7          -7.3210    -2.4050     0.4820 c3         0 104      -0.064900
     11 C8          -8.2090    -0.5920     1.9110 c3         0 104      -0.065400
     12 C9          -8.0140     0.8070     1.3580 c3         0 104      -0.066400
     13 C10         -6.8860     0.8540     0.3100 c3         0 104      -0.040500
     14 C11         -7.5620     1.0350    -1.0360 c3         0 104      -0.066900
     15 C12         -5.9390    -0.2930     0.3910 c3         0 104      -0.055400
     16 C13         -6.1630     2.0900     0.7220 c3         0 104       0.098500
     17 N1          -5.3070     2.9310    -0.0170 n          0 104      -0.512400
     18 C14         -5.6870     4.1390    -0.5290 c          0 104       0.717600
     19 O1          -6.7910     4.4520    -0.9270 o          0 104      -0.560500
     20 C15         -4.4710     4.9900    -0.4960 ca         0 104      -0.117600
     21 C16         -3.3650     4.1290    -0.3130 ca         0 104      -0.147100
     22 C17         -2.0840     4.6570    -0.2390 ca         0 104      -0.030000
     23 C18         -1.8730     6.0440    -0.2710 ca         0 104      -0.159100
     24 C19         -2.9920     6.8920    -0.4360 ca         0 104      -0.073500
     25 C20         -4.2540     6.3520    -0.5490 ca         0 104      -0.073000
     26 C21         -0.5920     6.6990    -0.0480 c          0 104       0.584300
     27 O2          -0.6620     7.9110    -0.0100 o          0 104      -0.496100
     28 C22          0.7420     6.1860     0.1380 ca         0 104      -0.159100
     29 C23          1.2230     5.0420    -0.5240 ca         0 104      -0.030000
     30 C24          2.5070     4.5660    -0.2940 ca         0 104      -0.147100
     31 C25          3.3370     5.2190     0.6440 ca         0 104      -0.117600
     32 C26          2.8900     6.3860     1.2500 ca         0 104      -0.073000
     33 C27          1.6100     6.8610     1.0250 ca         0 104      -0.073500
     34 C28          4.5250     4.3380     0.8140 c          0 104       0.717600
     35 O3           5.5300     4.6050     1.4410 o          0 104      -0.560500
     36 N2           4.2810     3.1850     0.1440 n          0 104      -0.512400
     37 C29          4.7220     1.8440     0.4000 c3         0 104       0.098500
     38 C30          6.1540     1.4300     0.1620 c3         0 104      -0.040500
     39 C31          6.8010     1.5340     1.5310 c3         0 104      -0.066900
     40 C32          8.0690     0.6880     1.6030 c3         0 104      -0.055200
     41 C33          9.0950     1.1980     0.6080 c3         0 104      -0.062400
     42 C34          8.7960     0.8390    -0.8210 c3         0 104      -0.051200
     43 C35          8.3050    -0.5740    -1.0300 c3         0 104      -0.064900
     44 C36          7.1310    -0.9190    -0.0830 c3         0 104      -0.057000
     45 C37          7.6980    -0.7620     1.3360 c3         0 104      -0.070400
     46 C38          5.9910     0.0180    -0.3510 c3         0 104      -0.055400
     47 C39          6.8410    -2.3690    -0.3060 c3         0 104       0.101000
     48 N3           5.6180    -3.0910    -0.3260 n          0 104      -0.508900
     49 C40          5.6990    -4.3340    -0.9050 c          0 104       0.715100
     50 O4           6.6460    -4.7650    -1.5300 o          0 104      -0.561500
     51 C41          4.4440    -5.0540    -0.6390 ca         0 104      -0.119600
     52 C42          3.5950    -4.1450     0.0240 ca         0 104      -0.148600
     53 C43          2.3160    -4.5430     0.3700 ca         0 104      -0.026000
     54 C44          1.9050    -5.8420     0.1140 ca         0 104      -0.159600
     55 C45          2.7660    -6.7380    -0.5510 ca         0 104      -0.076000
     56 C46          4.0170    -6.3350    -0.9340 ca         0 104      -0.074000
     57 C47          0.6340    -6.4230     0.5040 c          0 104       0.582300
     58 O5           0.7860    -7.4880     1.0680 o          0 104      -0.494100
     59 C48         -0.7470    -6.0790     0.4040 ca         0 104      -0.159600
     60 C49         -1.2520    -4.8140     0.7650 ca         0 104      -0.026000
     61 C50         -2.5950    -4.5040     0.5910 ca         0 104      -0.148600
     62 C51         -3.4320    -3.3050     0.8320 c          0 104       0.720600
     63 O6          -3.1920    -2.3950     1.5990 o          0 104      -0.555500
     64 C52         -3.4900    -5.4550     0.0570 ca         0 104      -0.119600
     65 C53         -3.0080    -6.7260    -0.2270 ca         0 104      -0.074000
     66 C54         -1.6640    -7.0410    -0.0870 ca         0 104      -0.076000
     67 C55          4.3900    -2.8980     0.1610 c          0 104       0.720600
     68 O7           3.9850    -1.8590     0.6430 o          0 104      -0.555500
     69 C56          7.9650     1.8530    -1.5610 c3         0 104      -0.065400
     70 C57          6.7630     2.3930    -0.8200 c3         0 104      -0.066400
     71 C58          3.3220     3.4470    -0.8130 c          0 104       0.720100
     72 O8           3.1760     2.8710    -1.8720 o          0 104      -0.557000
     73 C59         -3.9700     2.7790    -0.2180 c          0 104       0.720100
     74 O9          -3.3770     1.7230    -0.3040 o          0 104      -0.557000
     75 H           -4.2720    -1.5480    -0.7030 h1         0 104       0.069700
     76 H1          -5.1890    -2.6100    -1.7230 h1         0 104       0.069700
     77 H2          -6.2950    -0.8560    -2.3610 hc         0 104       0.046700
     78 H3          -7.4020    -2.2200    -2.0770 hc         0 104       0.046700
     79 H4          -8.6980    -0.1940    -2.4080 hc         0 104       0.049700
     80 H5          -9.7550    -0.0240    -0.0750 hc         0 104       0.040200
     81 H6          -9.7980    -1.5610    -0.9330 hc         0 104       0.040200
     82 H7          -9.2780    -2.2340     1.1290 hc         0 104       0.041700
     83 H8          -7.6150    -3.2780    -0.1000 hc         0 104       0.045700
     84 H9          -6.8670    -2.7220     1.4210 hc         0 104       0.045700
     85 H10         -9.0250    -0.5880     2.6340 hc         0 104       0.036700
     86 H11         -7.2910    -0.9220     2.3970 hc         0 104       0.036700
     87 H12         -8.9440     1.1390     0.8950 hc         0 104       0.040450
     88 H13         -7.7660     1.4820     2.1780 hc         0 104       0.040450
     89 H14         -6.8280     1.3520    -1.7770 hc         0 104       0.049200
     90 H15         -8.3500     1.7840    -0.9550 hc         0 104       0.049200
     91 H16         -5.7880    -0.5270     1.4450 hc         0 104       0.044700
     92 H17         -4.9820     0.0340    -0.0150 hc         0 104       0.044700
     93 H18         -6.9320     2.7490     1.1250 h1         0 104       0.064200
     94 H19         -5.5890     1.8040     1.6040 h1         0 104       0.064200
     95 H20         -1.2370     3.9920    -0.1550 ha         0 104       0.169500
     96 H21         -2.8580     7.9630    -0.4740 ha         0 104       0.159500
     97 H22         -5.0980     7.0130    -0.6820 ha         0 104       0.167000
     98 H23          0.5820     4.5240    -1.2220 ha         0 104       0.169500
     99 H24          3.5510     6.9320     1.9070 ha         0 104       0.167000
    100 H25          1.2720     7.7540     1.5310 ha         0 104       0.159500
    101 H26          4.4950     1.6270     1.4430 h1         0 104       0.064200
    102 H27          4.0950     1.1820    -0.1980 h1         0 104       0.064200
    103 H28          7.0540     2.5760     1.7290 hc         0 104       0.049200
    104 H29          6.0970     1.1880     2.2880 hc         0 104       0.049200
    105 H30          8.4810     0.7600     2.6130 hc         0 104       0.049700
    106 H31          9.1450     2.2840     0.6890 hc         0 104       0.040200
    107 H32         10.0680     0.7860     0.8730 hc         0 104       0.040200
    108 H33          9.7810     0.8400    -1.3240 hc         0 104       0.041700
    109 H34          7.9740    -0.6850    -2.0620 hc         0 104       0.045700
    110 H35          9.1260    -1.2660    -0.8450 hc         0 104       0.045700
    111 H36          8.5860    -1.3860     1.4400 hc         0 104       0.046700
    112 H37          6.9480    -1.0810     2.0600 hc         0 104       0.046700
    113 H38          5.0920    -0.4050     0.0990 hc         0 104       0.044700
    114 H39          5.8360     0.0650    -1.4290 hc         0 104       0.044700
    115 H40          7.3220    -2.6070    -1.2550 h1         0 104       0.069700
    116 H41          7.4640    -2.8930     0.4180 h1         0 104       0.069700
    117 H42          1.6400    -3.8440     0.8380 ha         0 104       0.173000
    118 H43          2.4380    -7.7460    -0.7590 ha         0 104       0.154500
    119 H44          4.6680    -7.0150    -1.4640 ha         0 104       0.166500
    120 H45         -0.5850    -4.0750     1.1840 ha         0 104       0.173000
    121 H46         -3.6950    -7.4830    -0.5760 ha         0 104       0.166500
    122 H47         -1.3170    -8.0330    -0.3360 ha         0 104       0.154500
    123 H48          8.6080     2.6930    -1.8220 hc         0 104       0.036700
    124 H49          7.6160     1.3960    -2.4860 hc         0 104       0.036700
    125 H50          6.0020     2.6690    -1.5500 hc         0 104       0.040450
    126 H51          7.0640     3.2920    -0.2810 hc         0 104       0.040450
@<TRIPOS>BOND
     1     1     2 2   
     2     2     3 1   
     3     2    64 1   
     4     3     4 1   
     5     3    62 1   
     6     4     5 1   
     7     4    75 1   
     8     4    76 1   
     9     5     6 1   
    10     5    10 1   
    11     5    15 1   
    12     6     7 1   
    13     6    77 1   
    14     6    78 1   
    15     7     8 1   
    16     7    14 1   
    17     7    79 1   
    18     8     9 1   
    19     8    80 1   
    20     8    81 1   
    21     9    10 1   
    22     9    11 1   
    23     9    82 1   
    24    10    83 1   
    25    10    84 1   
    26    11    12 1   
    27    11    85 1   
    28    11    86 1   
    29    12    13 1   
    30    12    87 1   
    31    12    88 1   
    32    13    14 1   
    33    13    15 1   
    34    13    16 1   
    35    14    89 1   
    36    14    90 1   
    37    15    91 1   
    38    15    92 1   
    39    16    17 1   
    40    16    93 1   
    41    16    94 1   
    42    17    18 1   
    43    17    73 1   
    44    18    19 2   
    45    18    20 1   
    46    20    21 ar  
    47    20    25 ar  
    48    21    22 ar  
    49    21    73 1   
    50    22    23 ar  
    51    22    95 1   
    52    23    24 ar  
    53    23    26 1   
    54    24    25 ar  
    55    24    96 1   
    56    25    97 1   
    57    26    27 2   
    58    26    28 1   
    59    28    29 ar  
    60    28    33 ar  
    61    29    30 ar  
    62    29    98 1   
    63    30    31 ar  
    64    30    71 1   
    65    31    32 ar  
    66    31    34 1   
    67    32    33 ar  
    68    32    99 1   
    69    33   100 1   
    70    34    35 2   
    71    34    36 1   
    72    36    37 1   
    73    36    71 1   
    74    37    38 1   
    75    37   101 1   
    76    37   102 1   
    77    38    39 1   
    78    38    46 1   
    79    38    70 1   
    80    39    40 1   
    81    39   103 1   
    82    39   104 1   
    83    40    41 1   
    84    40    45 1   
    85    40   105 1   
    86    41    42 1   
    87    41   106 1   
    88    41   107 1   
    89    42    43 1   
    90    42    69 1   
    91    42   108 1   
    92    43    44 1   
    93    43   109 1   
    94    43   110 1   
    95    44    45 1   
    96    44    46 1   
    97    44    47 1   
    98    45   111 1   
    99    45   112 1   
   100    46   113 1   
   101    46   114 1   
   102    47    48 1   
   103    47   115 1   
   104    47   116 1   
   105    48    49 1   
   106    48    67 1   
   107    49    50 2   
   108    49    51 1   
   109    51    52 ar  
   110    51    56 ar  
   111    52    53 ar  
   112    52    67 1   
   113    53    54 ar  
   114    53   117 1   
   115    54    55 ar  
   116    54    57 1   
   117    55    56 ar  
   118    55   118 1   
   119    56   119 1   
   120    57    58 2   
   121    57    59 1   
   122    59    60 ar  
   123    59    66 ar  
   124    60    61 ar  
   125    60   120 1   
   126    61    62 1   
   127    61    64 ar  
   128    62    63 2   
   129    64    65 ar  
   130    65    66 ar  
   131    65   121 1   
   132    66   122 1   
   133    67    68 2   
   134    69    70 1   
   135    69   123 1   
   136    69   124 1   
   137    70   125 1   
   138    70   126 1   
   139    71    72 2   
   140    73    74 2   
@<TRIPOS>SUBSTRUCTURE
     1 104         1 TEMP              0 ****  ****    0 ROOT
