@<TRIPOS>MOLECULE
ASB
  114   118     1     0     0
SMALL
bcc


@<TRIPOS>ATOM
      1 C           -4.9580     3.6210     1.7660 c3         0 ASB       0.112450
      2 O           -5.7490     3.3220     0.6130 os         0 ASB      -0.368400
      3 C1          -5.4610     2.0410     0.2620 ca         0 ASB       0.118850
      4 C2          -6.1990     0.9940     0.7920 ca         0 ASB      -0.093800
      5 C3          -7.3170     1.2730     1.7640 c3         0 ASB      -0.061800
      6 C4          -5.9070    -0.3090     0.4250 ca         0 ASB       0.118850
      7 O1          -6.6350    -1.3380     0.9340 os         0 ASB      -0.368400
      8 C5          -7.7290    -1.5510     0.0400 c3         0 ASB       0.112450
      9 C6          -4.8680    -0.5670    -0.4650 ca         0 ASB      -0.141050
     10 C7          -4.6000    -1.9860    -0.8830 c3         0 ASB       0.133800
     11 N           -3.2390    -2.4120    -0.4770 n          0 ASB      -0.534150
     12 C8          -3.1210    -3.7450    -0.2840 c          0 ASB       0.664950
     13 O2          -4.1600    -4.3710    -0.1940 o          0 ASB      -0.565350
     14 C9          -1.8850    -4.5200    -0.1730 ca         0 ASB      -0.191100
     15 C10         -2.0050    -5.9080     0.0240 ca         0 ASB       0.084900
     16 C11         -3.3770    -6.5230     0.1320 c3         0 ASB      -0.102550
     17 N1          -0.9460    -6.6780     0.1160 na         0 ASB      -0.004100
     18 C12         -1.1260    -8.1170     0.3240 c3         0 ASB      -0.034900
     19 C13          0.2700    -6.1920     0.0260 ca         0 ASB       0.084900
     20 C14          1.4480    -7.1240     0.1370 c3         0 ASB      -0.102550
     21 C15          0.4950    -4.8190    -0.1720 ca         0 ASB      -0.191100
     22 C16         -0.6070    -3.9690    -0.2590 ca         0 ASB       0.127700
     23 C17         -0.4200    -2.4840    -0.4410 c3         0 ASB      -0.108800
     24 C18          1.8810    -4.3710    -0.3140 c          0 ASB       0.664950
     25 O3           2.7390    -5.2300    -0.2580 o          0 ASB      -0.565350
     26 N2           2.3070    -3.1010    -0.5000 n          0 ASB      -0.534150
     27 C19          3.6820    -3.0010    -1.0490 c3         0 ASB       0.133800
     28 C20          4.3970    -1.8090    -0.4720 ca         0 ASB      -0.141050
     29 C21          5.3980    -2.0040     0.4750 ca         0 ASB       0.118850
     30 O4           5.7010    -3.2610     0.8940 os         0 ASB      -0.368400
     31 C22          6.7190    -3.7540     0.0190 c3         0 ASB       0.112450
     32 C23          6.0880    -0.9170     0.9920 ca         0 ASB      -0.093800
     33 C24          7.1630    -1.1250     2.0270 c3         0 ASB      -0.061800
     34 C25          5.7840     0.3620     0.5510 ca         0 ASB       0.118850
     35 O5           6.4630     1.4300     1.0450 os         0 ASB      -0.368400
     36 C26          7.5940     1.6300     0.1950 c3         0 ASB       0.112450
     37 C27          4.7850     0.5520    -0.3980 ca         0 ASB      -0.141050
     38 C28          4.5030     1.9440    -0.8950 c3         0 ASB       0.133800
     39 N3           3.1580     2.4000    -0.4650 n          0 ASB      -0.534150
     40 C29          3.0620     3.7410    -0.3070 c          0 ASB       0.664950
     41 O6           4.1060     4.3590    -0.2360 o          0 ASB      -0.565350
     42 C30          1.8270     4.5220    -0.2130 ca         0 ASB      -0.191100
     43 C31          0.5530     3.9580    -0.2890 ca         0 ASB       0.127700
     44 C32          0.3780     2.4680    -0.4330 c3         0 ASB      -0.108800
     45 C33         -0.5550     4.8040    -0.2290 ca         0 ASB      -0.191100
     46 C34         -0.3400     6.1830    -0.0620 ca         0 ASB       0.084900
     47 C35         -1.5250     7.1110     0.0250 c3         0 ASB      -0.102550
     48 N4           0.8740     6.6790     0.0210 na         0 ASB      -0.004100
     49 C36          1.0440     8.1230     0.1990 c3         0 ASB      -0.034900
     50 C37          1.9390     5.9140    -0.0520 ca         0 ASB       0.084900
     51 C38          3.3070     6.5400     0.0390 c3         0 ASB      -0.102550
     52 C39         -1.9360     4.3360    -0.3820 c          0 ASB       0.664950
     53 O7          -2.8120     5.1770    -0.3260 o          0 ASB      -0.565350
     54 N5          -2.3260     3.0560    -0.5810 n          0 ASB      -0.534150
     55 C40         -3.6540     2.9230    -1.2270 c3         0 ASB       0.133800
     56 C41         -4.4310     1.7810    -0.6330 ca         0 ASB      -0.141050
     57 C42         -4.1240     0.4780    -0.9740 ca         0 ASB      -0.083500
     58 C43          4.0870    -0.5310    -0.8920 ca         0 ASB      -0.083500
     59 H           -5.1560     4.6440     2.0860 h1         0 ASB       0.053867
     60 H1          -5.2140     2.9320     2.5710 h1         0 ASB       0.053867
     61 H2          -3.9020     3.5160     1.5190 h1         0 ASB       0.053867
     62 H3          -8.2490     1.4110     1.2150 hc         0 ASB       0.062367
     63 H4          -7.4200     0.4320     2.4490 hc         0 ASB       0.062367
     64 H5          -7.0900     2.1770     2.3290 hc         0 ASB       0.062367
     65 H6          -8.3450    -2.3710     0.4090 h1         0 ASB       0.053867
     66 H7          -8.3310    -0.6440    -0.0210 h1         0 ASB       0.053867
     67 H8          -7.3470    -1.8000    -0.9500 h1         0 ASB       0.053867
     68 H9          -5.3350    -2.6410    -0.4160 h1         0 ASB       0.086200
     69 H10         -4.6910    -2.0630    -1.9670 h1         0 ASB       0.086200
     70 H11         -2.5010    -1.7920    -0.3610 hn         0 ASB       0.321750
     71 H12         -3.8700    -6.4840    -0.8390 hc         0 ASB       0.100367
     72 H13         -3.2860    -7.5600     0.4530 hc         0 ASB       0.100367
     73 H14         -3.9670    -5.9670     0.8610 hc         0 ASB       0.100367
     74 H15         -1.2520    -8.6110    -0.6390 h1         0 ASB       0.099367
     75 H16         -0.2490    -8.5230     0.8290 h1         0 ASB       0.099367
     76 H17         -2.0100    -8.2880     0.9380 h1         0 ASB       0.099367
     77 H18          1.8170    -7.3640    -0.8600 hc         0 ASB       0.100367
     78 H19          2.2400    -6.6430     0.7110 hc         0 ASB       0.100367
     79 H20          1.1400    -8.0410     0.6400 hc         0 ASB       0.100367
     80 H21         -0.3840    -2.2510    -1.5060 hc         0 ASB       0.098700
     81 H22         -1.2530    -1.9540     0.0190 hc         0 ASB       0.098700
     82 H23          0.5130    -2.1750     0.0300 hc         0 ASB       0.098700
     83 H24          1.7630    -2.3250    -0.2950 hn         0 ASB       0.321750
     84 H25          4.2350    -3.9070    -0.8000 h1         0 ASB       0.086200
     85 H26          3.6300    -2.8990    -2.1330 h1         0 ASB       0.086200
     86 H27          6.9960    -4.7650     0.3180 h1         0 ASB       0.053867
     87 H28          6.3440    -3.7670    -1.0040 h1         0 ASB       0.053867
     88 H29          7.5930    -3.1050     0.0780 h1         0 ASB       0.053867
     89 H30          8.1230    -1.2650     1.5310 hc         0 ASB       0.062367
     90 H31          7.2140    -0.2520     2.6780 hc         0 ASB       0.062367
     91 H32          6.9280    -2.0080     2.6220 hc         0 ASB       0.062367
     92 H33          8.1730     2.4810     0.5540 h1         0 ASB       0.053867
     93 H34          8.2180     0.7360     0.2050 h1         0 ASB       0.053867
     94 H35          7.2550     1.8240    -0.8220 h1         0 ASB       0.053867
     95 H36          5.2550     2.6250    -0.4980 h1         0 ASB       0.086200
     96 H37          4.5520     1.9520    -1.9840 h1         0 ASB       0.086200
     97 H38          2.4170     1.7940    -0.3130 hn         0 ASB       0.321750
     98 H39          0.2960     2.0150     0.5560 hc         0 ASB       0.098700
     99 H40         -0.5280     2.2620    -1.0030 hc         0 ASB       0.098700
    100 H41          1.2390     2.0500    -0.9540 hc         0 ASB       0.098700
    101 H42         -1.9260     7.0930     1.0380 hc         0 ASB       0.100367
    102 H43         -1.2110     8.1240    -0.2250 hc         0 ASB       0.100367
    103 H44         -2.2930     6.7850    -0.6770 hc         0 ASB       0.100367
    104 H45          0.9290     8.3750     1.2530 h1         0 ASB       0.099367
    105 H46          2.0380     8.4160    -0.1380 h1         0 ASB       0.099367
    106 H47          0.2910     8.6520    -0.3850 h1         0 ASB       0.099367
    107 H48          3.7030     6.4040     1.0450 hc         0 ASB       0.100367
    108 H49          3.9730     6.0630    -0.6810 hc         0 ASB       0.100367
    109 H50          3.2350     7.6050    -0.1830 hc         0 ASB       0.100367
    110 H51         -1.7860     2.2930    -0.3240 hn         0 ASB       0.321750
    111 H52         -4.2150     3.8470    -1.0860 h1         0 ASB       0.086200
    112 H53         -3.5180     2.7470    -2.2940 h1         0 ASB       0.086200
    113 H54         -3.2970     0.2760    -1.6390 ha         0 ASB       0.142500
    114 H55          3.2960    -0.3780    -1.6100 ha         0 ASB       0.142500
@<TRIPOS>BOND
     1     1     2 1   
     2     1    59 1   
     3     1    60 1   
     4     1    61 1   
     5     2     3 1   
     6     3     4 ar  
     7     3    56 ar  
     8     4     5 1   
     9     4     6 ar  
    10     5    62 1   
    11     5    63 1   
    12     5    64 1   
    13     6     7 1   
    14     6     9 ar  
    15     7     8 1   
    16     8    65 1   
    17     8    66 1   
    18     8    67 1   
    19     9    10 1   
    20     9    57 ar  
    21    10    11 1   
    22    10    68 1   
    23    10    69 1   
    24    11    12 1   
    25    11    70 1   
    26    12    13 2   
    27    12    14 1   
    28    14    15 ar  
    29    14    22 ar  
    30    15    16 1   
    31    15    17 2   
    32    16    71 1   
    33    16    72 1   
    34    16    73 1   
    35    17    18 1   
    36    17    19 1   
    37    18    74 1   
    38    18    75 1   
    39    18    76 1   
    40    19    20 1   
    41    19    21 ar  
    42    20    77 1   
    43    20    78 1   
    44    20    79 1   
    45    21    22 ar  
    46    21    24 1   
    47    22    23 1   
    48    23    80 1   
    49    23    81 1   
    50    23    82 1   
    51    24    25 2   
    52    24    26 1   
    53    26    27 1   
    54    26    83 1   
    55    27    28 1   
    56    27    84 1   
    57    27    85 1   
    58    28    29 ar  
    59    28    58 ar  
    60    29    30 1   
    61    29    32 ar  
    62    30    31 1   
    63    31    86 1   
    64    31    87 1   
    65    31    88 1   
    66    32    33 1   
    67    32    34 ar  
    68    33    89 1   
    69    33    90 1   
    70    33    91 1   
    71    34    35 1   
    72    34    37 ar  
    73    35    36 1   
    74    36    92 1   
    75    36    93 1   
    76    36    94 1   
    77    37    38 1   
    78    37    58 ar  
    79    38    39 1   
    80    38    95 1   
    81    38    96 1   
    82    39    40 1   
    83    39    97 1   
    84    40    41 2   
    85    40    42 1   
    86    42    43 ar  
    87    42    50 ar  
    88    43    44 1   
    89    43    45 ar  
    90    44    98 1   
    91    44    99 1   
    92    44   100 1   
    93    45    46 ar  
    94    45    52 1   
    95    46    47 1   
    96    46    48 2   
    97    47   101 1   
    98    47   102 1   
    99    47   103 1   
   100    48    49 1   
   101    48    50 1   
   102    49   104 1   
   103    49   105 1   
   104    49   106 1   
   105    50    51 1   
   106    51   107 1   
   107    51   108 1   
   108    51   109 1   
   109    52    53 2   
   110    52    54 1   
   111    54    55 1   
   112    54   110 1   
   113    55    56 1   
   114    55   111 1   
   115    55   112 1   
   116    56    57 ar  
   117    57   113 1   
   118    58   114 1   
@<TRIPOS>SUBSTRUCTURE
     1 ASB         1 TEMP              0 ****  ****    0 ROOT
