@<TRIPOS>MOLECULE
122
  108   117     1     0     0
SMALL
bcc


@<TRIPOS>ATOM
      1 O1          -0.4280     5.4400    -2.0150 o          1 122      -0.639500
      2 C1          -0.3130     4.9130    -0.9210 c          1 122       0.767500
      3 N1          -1.3060     4.8130     0.0520 n          1 122      -0.436300
      4 C2          -2.6970     5.1260    -0.2210 c3         1 122       0.131133
      5 C3          -3.5070     3.9130    -0.6070 ca         1 122      -0.107300
      6 C4          -3.4720     3.4190    -1.9170 ca         1 122      -0.119167
      7 C5          -4.2140     2.2890    -2.2730 ca         1 122      -0.119167
      8 C6          -4.9960     1.6240    -1.3200 ca         1 122      -0.107300
      9 C7          -5.0160     2.1100    -0.0060 ca         1 122      -0.119167
     10 C8          -4.2870     3.2460     0.3460 ca         1 122      -0.119167
     11 C9          -5.7820     0.3840    -1.6760 c3         1 122       0.131133
     12 N2          -5.0040    -0.8340    -1.5570 n          1 122      -0.436300
     13 C10         -4.7040    -1.3950    -0.3120 c          1 122       0.767500
     14 O2          -5.2440    -1.1300     0.7500 o          1 122      -0.639500
     15 N3          -3.6670    -2.3080    -0.5010 n          1 122      -0.436300
     16 C11         -3.1890    -3.1710     0.5640 c3         1 122       0.131133
     17 C12         -1.7070    -3.4630     0.5140 ca         1 122      -0.107300
     18 C13         -1.2340    -4.7390     0.8390 ca         1 122      -0.119167
     19 C14          0.1360    -5.0200     0.8120 ca         1 122      -0.119167
     20 C15          1.0690    -4.0320     0.4620 ca         1 122      -0.107300
     21 C16          0.5910    -2.7580     0.1300 ca         1 122      -0.119167
     22 C17         -0.7750    -2.4680     0.1910 ca         1 122      -0.119167
     23 C18          2.5330    -4.4090     0.3790 c3         1 122       0.131133
     24 N4           3.4870    -3.3350     0.6030 n          1 122      -0.436300
     25 C19          4.0120    -2.6000    -0.4690 c          1 122       0.767500
     26 O3           3.8900    -2.8560    -1.6550 o          1 122      -0.639500
     27 N5           4.6760    -1.5020     0.0720 n          1 122      -0.436300
     28 C20          5.3190    -0.4720    -0.7140 c3         1 122       0.131133
     29 C21          4.4870     0.7840    -0.7820 ca         1 122      -0.107300
     30 C22          3.2800     0.7920    -1.4950 ca         1 122      -0.119167
     31 C23          2.5150     1.9560    -1.5850 ca         1 122      -0.119167
     32 C24          2.9420     3.1370    -0.9650 ca         1 122      -0.107300
     33 C25          4.1440     3.1270    -0.2440 ca         1 122      -0.119167
     34 C26          4.9080     1.9610    -0.1510 ca         1 122      -0.119167
     35 C27          2.1200     4.3960    -1.0850 c3         1 122       0.131133
     36 N6           0.8350     4.3060    -0.4180 n          1 122      -0.436300
     37 C28          0.6640     3.9140     0.9730 c3         1 122       0.073867
     38 C29          1.3950     4.8380     1.9500 c3         1 122      -0.084067
     39 C30          1.0800     4.4880     3.4040 c3         1 122      -0.076567
     40 C31         -0.3610     4.0250     3.6260 c3         1 122      -0.076567
     41 C32         -1.2960     4.5210     2.5300 c3         1 122      -0.084067
     42 C33         -0.8680     3.9810     1.1640 c3         1 122       0.073867
     43 C34          4.7310    -1.5800     1.5250 c3         1 122       0.073867
     44 C35          6.1060    -2.1080     1.9630 c3         1 122      -0.084067
     45 C36          6.0920    -2.7480     3.3420 c3         1 122      -0.076567
     46 C37          5.0620    -3.8670     3.4030 c3         1 122      -0.076567
     47 C38          3.6670    -3.3220     3.1330 c3         1 122      -0.084067
     48 C39          3.5610    -2.5410     1.8270 c3         1 122       0.073867
     49 C40         -3.4110    -2.5260    -1.9160 c3         1 122       0.073867
     50 C41         -4.0220    -3.8270    -2.4400 c3         1 122      -0.084067
     51 C42         -3.8620    -3.9550    -3.9560 c3         1 122      -0.076567
     52 C43         -3.9320    -2.6200    -4.6980 c3         1 122      -0.076567
     53 C44         -4.7190    -1.5730    -3.9190 c3         1 122      -0.084067
     54 C45         -4.0590    -1.2860    -2.5680 c3         1 122       0.073867
     55 H1          -3.1210     5.6070     0.6670 h1         1 122       0.068367
     56 H2          -2.7500     5.8660    -1.0280 h1         1 122       0.068367
     57 H3          -2.8580     3.9150    -2.6680 ha         1 122       0.139833
     58 H4          -4.1700     1.9280    -3.2980 ha         1 122       0.139833
     59 H5          -5.5980     1.5950     0.7570 ha         1 122       0.139833
     60 H6          -4.3260     3.5980     1.3740 ha         1 122       0.139833
     61 H7          -6.6480     0.3020    -1.0080 h1         1 122       0.068367
     62 H8          -6.1810     0.4600    -2.6930 h1         1 122       0.068367
     63 H9          -3.4240    -2.7180     1.5340 h1         1 122       0.068367
     64 H10         -3.7660    -4.1010     0.4960 h1         1 122       0.068367
     65 H11         -1.9290    -5.5310     1.1120 ha         1 122       0.139833
     66 H12          0.4700    -6.0260     1.0560 ha         1 122       0.139833
     67 H13          1.2730    -1.9720    -0.1840 ha         1 122       0.139833
     68 H14         -1.1110    -1.4590    -0.0440 ha         1 122       0.139833
     69 H15          2.7590    -5.1860     1.1180 h1         1 122       0.068367
     70 H16          2.7150    -4.8420    -0.6110 h1         1 122       0.068367
     71 H17          6.3080    -0.2730    -0.2860 h1         1 122       0.068367
     72 H18          5.4830    -0.8390    -1.7340 h1         1 122       0.068367
     73 H19          2.9360    -0.1130    -1.9940 ha         1 122       0.139833
     74 H20          1.5830     1.9420    -2.1480 ha         1 122       0.139833
     75 H21          4.4980     4.0320     0.2440 ha         1 122       0.139833
     76 H22          5.8410     1.9820     0.4080 ha         1 122       0.139833
     77 H23          2.6520     5.2550    -0.6600 h1         1 122       0.068367
     78 H24          1.9690     4.6250    -2.1470 h1         1 122       0.068367
     79 H25          1.0130     2.8820     1.1020 h1         1 122       0.063700
     80 H26          2.4790     4.7940     1.7960 hc         1 122       0.051700
     81 H27          1.1090     5.8810     1.7590 hc         1 122       0.051700
     82 H28          1.7600     3.7000     3.7520 hc         1 122       0.044950
     83 H29          1.2860     5.3660     4.0280 hc         1 122       0.044950
     84 H30         -0.7110     4.3660     4.6070 hc         1 122       0.044950
     85 H31         -0.3890     2.9280     3.6500 hc         1 122       0.044950
     86 H32         -2.3240     4.2100     2.7480 hc         1 122       0.051700
     87 H33         -1.3020     5.6190     2.5290 hc         1 122       0.051700
     88 H34         -1.2810     2.9760     1.0070 h1         1 122       0.063700
     89 H35          4.5390    -0.5960     1.9660 h1         1 122       0.063700
     90 H36          6.4740    -2.8500     1.2410 hc         1 122       0.051700
     91 H37          6.8340    -1.2880     1.9440 hc         1 122       0.051700
     92 H38          7.0860    -3.1510     3.5690 hc         1 122       0.044950
     93 H39          5.8710    -1.9900     4.1030 hc         1 122       0.044950
     94 H40          5.0860    -4.3360     4.3930 hc         1 122       0.044950
     95 H41          5.3080    -4.6460     2.6720 hc         1 122       0.044950
     96 H42          3.4050    -2.6430     3.9560 hc         1 122       0.051700
     97 H43          2.9370    -4.1380     3.1680 hc         1 122       0.051700
     98 H44          2.6380    -1.9470     1.8600 h1         1 122       0.063700
     99 H45         -2.3330    -2.5220    -2.1070 h1         1 122       0.063700
    100 H46         -3.5670    -4.6960    -1.9510 hc         1 122       0.051700
    101 H47         -5.0900    -3.8650    -2.1860 hc         1 122       0.051700
    102 H48         -2.9030    -4.4360    -4.1880 hc         1 122       0.044950
    103 H49         -4.6390    -4.6300    -4.3340 hc         1 122       0.044950
    104 H50         -4.3770    -2.7700    -5.6880 hc         1 122       0.044950
    105 H51         -2.9140    -2.2460    -4.8700 hc         1 122       0.044950
    106 H52         -5.7490    -1.9250    -3.7810 hc         1 122       0.051700
    107 H53         -4.7870    -0.6450    -4.5000 hc         1 122       0.051700
    108 H54         -3.2920    -0.5080    -2.6760 h1         1 122       0.063700
@<TRIPOS>BOND
     1     1     2 2   
     2     2     3 1   
     3     2    36 1   
     4     3     4 1   
     5     3    42 1   
     6     4     5 1   
     7     4    55 1   
     8     4    56 1   
     9     5     6 ar  
    10     5    10 ar  
    11     6     7 ar  
    12     6    57 1   
    13     7     8 ar  
    14     7    58 1   
    15     8     9 ar  
    16     8    11 1   
    17     9    10 ar  
    18     9    59 1   
    19    10    60 1   
    20    11    12 1   
    21    11    61 1   
    22    11    62 1   
    23    12    13 1   
    24    12    54 1   
    25    13    14 2   
    26    13    15 1   
    27    15    16 1   
    28    15    49 1   
    29    16    17 1   
    30    16    63 1   
    31    16    64 1   
    32    17    18 ar  
    33    17    22 ar  
    34    18    19 ar  
    35    18    65 1   
    36    19    20 ar  
    37    19    66 1   
    38    20    21 ar  
    39    20    23 1   
    40    21    22 ar  
    41    21    67 1   
    42    22    68 1   
    43    23    24 1   
    44    23    69 1   
    45    23    70 1   
    46    24    25 1   
    47    24    48 1   
    48    25    26 2   
    49    25    27 1   
    50    27    28 1   
    51    27    43 1   
    52    28    29 1   
    53    28    71 1   
    54    28    72 1   
    55    29    30 ar  
    56    29    34 ar  
    57    30    31 ar  
    58    30    73 1   
    59    31    32 ar  
    60    31    74 1   
    61    32    33 ar  
    62    32    35 1   
    63    33    34 ar  
    64    33    75 1   
    65    34    76 1   
    66    35    36 1   
    67    35    77 1   
    68    35    78 1   
    69    36    37 1   
    70    37    38 1   
    71    37    42 1   
    72    37    79 1   
    73    38    39 1   
    74    38    80 1   
    75    38    81 1   
    76    39    40 1   
    77    39    82 1   
    78    39    83 1   
    79    40    41 1   
    80    40    84 1   
    81    40    85 1   
    82    41    42 1   
    83    41    86 1   
    84    41    87 1   
    85    42    88 1   
    86    43    44 1   
    87    43    48 1   
    88    43    89 1   
    89    44    45 1   
    90    44    90 1   
    91    44    91 1   
    92    45    46 1   
    93    45    92 1   
    94    45    93 1   
    95    46    47 1   
    96    46    94 1   
    97    46    95 1   
    98    47    48 1   
    99    47    96 1   
   100    47    97 1   
   101    48    98 1   
   102    49    50 1   
   103    49    54 1   
   104    49    99 1   
   105    50    51 1   
   106    50   100 1   
   107    50   101 1   
   108    51    52 1   
   109    51   102 1   
   110    51   103 1   
   111    52    53 1   
   112    52   104 1   
   113    52   105 1   
   114    53    54 1   
   115    53   106 1   
   116    53   107 1   
   117    54   108 1   
@<TRIPOS>SUBSTRUCTURE
     1 122         1 TEMP              0 ****  ****    0 ROOT
