@<TRIPOS>MOLECULE
70
   66    68     1     0     0
SMALL
bcc


@<TRIPOS>ATOM
      1 H           -2.5750     1.6380    -0.2160 hn         0 70        0.309500
      2 N           -3.0390     2.4650    -0.0070 n          0 70       -0.572650
      3 C           -2.3200     3.7290     0.2690 c3         0 70        0.091250
      4 C1          -1.1040     3.8100    -0.6590 c3         0 70       -0.096650
      5 C2           0.1560     4.0640     0.1740 c3         0 70       -0.082900
      6 C3           1.3940     3.8430    -0.6980 c3         0 70       -0.096650
      7 C4           2.6430     3.8190     0.1830 c3         0 70        0.091250
      8 N1           3.2360     2.4610     0.1330 n          0 70       -0.572650
      9 H1           2.6930     1.6570     0.1320 hn         0 70        0.309500
     10 C5           4.5990     2.4220     0.0890 c          0 70        0.669700
     11 O            5.2430     3.4530     0.0700 o          0 70       -0.599100
     12 C6           5.2830     1.1110     0.0670 ca         0 70       -0.148350
     13 C7           6.6790     1.0510     0.0480 ca         0 70       -0.061250
     14 C8           7.3190    -0.1710     0.0330 ca         0 70       -0.143500
     15 C9           6.5860    -1.3420     0.0340 ca         0 70       -0.061250
     16 C10          5.1910    -1.2960     0.0480 ca         0 70       -0.148350
     17 C11          4.5380    -0.0650     0.0630 ca         0 70       -0.083000
     18 C12          4.4060    -2.5490     0.0590 c          0 70        0.669700
     19 O1           4.9630    -3.6280     0.0920 o          0 70       -0.599100
     20 N2           3.0410    -2.4710     0.0320 n          0 70       -0.572650
     21 H2           2.5720    -1.6380    -0.1360 hn         0 70        0.309500
     22 C13          2.3300    -3.7460     0.2760 c3         0 70        0.091250
     23 C14          1.1100    -3.8090    -0.6460 c3         0 70       -0.096650
     24 C15         -0.1590    -3.9840     0.1930 c3         0 70       -0.082900
     25 C16         -1.3870    -3.8470    -0.7100 c3         0 70       -0.096650
     26 C17         -2.6520    -3.8310     0.1490 c3         0 70        0.091250
     27 N3          -3.2400    -2.4710     0.1070 n          0 70       -0.572650
     28 H3          -2.6950    -1.6700     0.0970 hn         0 70        0.309500
     29 C18         -4.6040    -2.4270     0.0820 c          0 70        0.669700
     30 O2          -5.2510    -3.4560     0.0720 o          0 70       -0.599100
     31 C19         -5.2850    -1.1150     0.0670 ca         0 70       -0.148350
     32 C20         -6.6810    -1.0530     0.0700 ca         0 70       -0.061250
     33 C21         -7.3200     0.1710     0.0610 ca         0 70       -0.143500
     34 C22         -6.5850     1.3410     0.0490 ca         0 70       -0.061250
     35 C23         -5.1900     1.2920     0.0450 ca         0 70       -0.148350
     36 C24         -4.5390     0.0600     0.0510 ca         0 70       -0.083000
     37 C25         -4.4030     2.5450     0.0460 c          0 70        0.669700
     38 O3          -4.9590     3.6250     0.0970 o          0 70       -0.599100
     39 H4          -2.9810     4.5750     0.0800 h1         0 70        0.058450
     40 H5          -1.9890     3.7430     1.3070 h1         0 70        0.058450
     41 H6          -0.9980     2.8700    -1.2010 hc         0 70        0.049575
     42 H7          -1.2420     4.6260    -1.3680 hc         0 70        0.049575
     43 H8           0.1490     5.0900     0.5410 hc         0 70        0.045200
     44 H9           0.1790     3.3760     1.0190 hc         0 70        0.045200
     45 H10          1.3030     2.8930    -1.2240 hc         0 70        0.049575
     46 H11          1.4770     4.6530    -1.4230 hc         0 70        0.049575
     47 H12          3.3660     4.5460    -0.1880 h1         0 70        0.058450
     48 H13          2.3710     4.0620     1.2100 h1         0 70        0.058450
     49 H14          7.2570     1.9630     0.0460 ha         0 70        0.159000
     50 H15          8.3980    -0.2130     0.0190 ha         0 70        0.146500
     51 H16          7.0930    -2.2960     0.0230 ha         0 70        0.159000
     52 H17          3.4590    -0.0230     0.0700 ha         0 70        0.137500
     53 H18          2.9950    -4.5820     0.0600 h1         0 70        0.058450
     54 H19          2.0060    -3.7910     1.3150 h1         0 70        0.058450
     55 H20          1.0420    -2.8860    -1.2210 hc         0 70        0.049575
     56 H21          1.2140    -4.6530    -1.3270 hc         0 70        0.049575
     57 H22         -0.1560    -4.9700     0.6560 hc         0 70        0.045200
     58 H23         -0.1910    -3.2180     0.9680 hc         0 70        0.045200
     59 H24         -1.3210    -2.9180    -1.2760 hc         0 70        0.049575
     60 H25         -1.4270    -4.6910    -1.4000 hc         0 70        0.049575
     61 H26         -3.3690    -4.5520    -0.2420 h1         0 70        0.058450
     62 H27         -2.3970    -4.0870     1.1780 h1         0 70        0.058450
     63 H28         -7.2610    -1.9640     0.0780 ha         0 70        0.159000
     64 H29         -8.3990     0.2140     0.0630 ha         0 70        0.146500
     65 H30         -7.0910     2.2950     0.0430 ha         0 70        0.159000
     66 H31         -3.4600     0.0170     0.0420 ha         0 70        0.137500
@<TRIPOS>BOND
     1     1     2 1   
     2     2     3 1   
     3     2    37 1   
     4     3     4 1   
     5     3    39 1   
     6     3    40 1   
     7     4     5 1   
     8     4    41 1   
     9     4    42 1   
    10     5     6 1   
    11     5    43 1   
    12     5    44 1   
    13     6     7 1   
    14     6    45 1   
    15     6    46 1   
    16     7     8 1   
    17     7    47 1   
    18     7    48 1   
    19     8     9 1   
    20     8    10 1   
    21    10    11 2   
    22    10    12 1   
    23    12    13 ar  
    24    12    17 ar  
    25    13    14 ar  
    26    13    49 1   
    27    14    15 ar  
    28    14    50 1   
    29    15    16 ar  
    30    15    51 1   
    31    16    17 ar  
    32    16    18 1   
    33    17    52 1   
    34    18    19 2   
    35    18    20 1   
    36    20    21 1   
    37    20    22 1   
    38    22    23 1   
    39    22    53 1   
    40    22    54 1   
    41    23    24 1   
    42    23    55 1   
    43    23    56 1   
    44    24    25 1   
    45    24    57 1   
    46    24    58 1   
    47    25    26 1   
    48    25    59 1   
    49    25    60 1   
    50    26    27 1   
    51    26    61 1   
    52    26    62 1   
    53    27    28 1   
    54    27    29 1   
    55    29    30 2   
    56    29    31 1   
    57    31    32 ar  
    58    31    36 ar  
    59    32    33 ar  
    60    32    63 1   
    61    33    34 ar  
    62    33    64 1   
    63    34    35 ar  
    64    34    65 1   
    65    35    36 ar  
    66    35    37 1   
    67    36    66 1   
    68    37    38 2   
@<TRIPOS>SUBSTRUCTURE
     1 70          1 TEMP              0 ****  ****    0 ROOT
