@<TRIPOS>MOLECULE
47
   96   100     1     0     0
SMALL
bcc


@<TRIPOS>ATOM
      1 O1          -5.5560    -0.4510     1.3480 o          1 47       -0.540500
      2 C1          -6.4350     0.2130     1.8800 c          1 47        0.610350
      3 O2          -7.4150    -0.3990     2.5770 oh         1 47       -0.590850
      4 C2          -6.5850     1.7360     1.8500 c3         1 47        0.064950
      5 C3          -7.8180     2.1510     1.0390 c3         1 47       -0.042550
      6 S1          -7.6570     2.4430    -0.7720 ss         1 47       -0.146100
      7 S2          -6.5170     0.9090    -1.5120 ss         1 47       -0.146100
      8 C4          -7.6910    -0.5050    -1.5560 c3         1 47       -0.042550
      9 C5          -7.0630    -1.7690    -2.1750 c3         1 47        0.064950
     10 C6          -7.1190    -1.7120    -3.7150 c          1 47        0.610350
     11 O3          -7.7520    -0.8830    -4.3540 o          1 47       -0.540500
     12 O4          -6.4980    -2.7480    -4.3310 oh         1 47       -0.590850
     13 N1          -5.7110    -2.0210    -1.6470 n          1 47       -0.558900
     14 C7          -5.0790    -3.2360    -1.7220 c          1 47        0.677450
     15 O5          -5.6260    -4.1850    -2.2800 o          1 47       -0.594850
     16 C8          -3.6700    -3.3150    -1.2410 ca         1 47       -0.142100
     17 C9          -3.1060    -2.3630    -0.3880 ca         1 47       -0.087000
     18 C10         -1.7530    -2.4460    -0.0310 ca         1 47       -0.125875
     19 C11         -0.9350    -3.4880    -0.5000 cp         1 47       -0.020750
     20 C12         -1.5310    -4.4610    -1.3210 ca         1 47       -0.125875
     21 C13         -2.8790    -4.3770    -1.6890 ca         1 47       -0.087000
     22 C14          0.4990    -3.5570    -0.1470 cp         1 47       -0.020750
     23 C15          0.9430    -3.2940     1.1630 ca         1 47       -0.125875
     24 C16          2.2990    -3.3540     1.4960 ca         1 47       -0.087000
     25 C17          3.2350    -3.6790     0.5140 ca         1 47       -0.142100
     26 C18          2.8260    -3.9680    -0.7860 ca         1 47       -0.087000
     27 C19          1.4690    -3.8930    -1.1130 ca         1 47       -0.125875
     28 C20          4.6640    -3.7770     0.8570 c          1 47        0.677450
     29 O6           5.2180    -4.8690     0.8310 o          1 47       -0.594850
     30 N2           5.3420    -2.6400     1.2020 n          1 47       -0.558900
     31 C21          4.9610    -1.2390     0.9700 c3         1 47        0.064950
     32 C22          5.7410    -0.2790     1.8720 c          1 47        0.610350
     33 O7           5.6320     0.9400     1.8800 o          1 47       -0.540500
     34 O8           6.6020    -0.8900     2.7130 oh         1 47       -0.590850
     35 C23          5.0780    -0.8100    -0.5030 c3         1 47       -0.042550
     36 S3           6.6570    -1.2190    -1.3450 ss         1 47       -0.146100
     37 S4           8.0420     0.0350    -0.4910 ss         1 47       -0.146100
     38 C24          7.9890     1.5430    -1.5430 c3         1 47       -0.042550
     39 C25          7.6060     2.8180    -0.7770 c3         1 47        0.064950
     40 C26          8.6020     3.1000     0.3480 c          1 47        0.610350
     41 O9           9.8140     3.2010     0.2270 o          1 47       -0.540500
     42 O10          8.0380     3.2410     1.5680 oh         1 47       -0.590850
     43 N3           6.2170     2.8070    -0.3110 n          1 47       -0.558900
     44 C27          5.1850     3.1270    -1.1620 c          1 47        0.677450
     45 O11          5.3760     3.4080    -2.3410 o          1 47       -0.594850
     46 C28          3.7960     3.0830    -0.6220 ca         1 47       -0.142100
     47 C29          3.5090     3.1020     0.7440 ca         1 47       -0.087000
     48 C30          2.1810     3.0330     1.1860 ca         1 47       -0.125875
     49 C31          1.1060     2.9670     0.2820 cp         1 47       -0.020750
     50 C32          1.4120     2.9750    -1.0890 ca         1 47       -0.125875
     51 C33          2.7370     3.0310    -1.5360 ca         1 47       -0.087000
     52 C34         -0.2900     2.8870     0.7560 cp         1 47       -0.020750
     53 C35         -0.7440     3.6840     1.8230 ca         1 47       -0.125875
     54 C36         -2.0540     3.5800     2.3020 ca         1 47       -0.087000
     55 C37         -2.9470     2.6890     1.7040 ca         1 47       -0.142100
     56 C38         -2.5230     1.8930     0.6370 ca         1 47       -0.087000
     57 C39         -1.2070     1.9930     0.1720 ca         1 47       -0.125875
     58 C40         -4.3050     2.5450     2.2820 c          1 47        0.677450
     59 O12         -4.4610     2.5860     3.4970 o          1 47       -0.594850
     60 N4          -5.3340     2.3360     1.3910 n          1 47       -0.558900
     61 H1          -7.1610    -1.3470     2.5940 ho         1 47        0.452750
     62 H2          -6.7420     2.0350     2.8950 h1         1 47        0.117200
     63 H3          -8.6440     1.4460     1.1830 h1         1 47        0.102575
     64 H4          -8.1690     3.1110     1.4340 h1         1 47        0.102575
     65 H5          -7.9640    -0.7260    -0.5180 h1         1 47        0.102575
     66 H6          -8.6020    -0.2110    -2.0880 h1         1 47        0.102575
     67 H7          -7.6910    -2.6260    -1.8980 h1         1 47        0.117200
     68 H8          -6.1740    -3.4350    -3.6980 ho         1 47        0.452750
     69 H9          -5.1700    -1.1970    -1.4110 hn         1 47        0.336250
     70 H10         -3.6920    -1.5480     0.0250 ha         1 47        0.154250
     71 H11         -1.3410    -1.6720     0.6140 ha         1 47        0.145000
     72 H12         -0.9480    -5.3050    -1.6860 ha         1 47        0.145000
     73 H13         -3.2990    -5.1420    -2.3400 ha         1 47        0.154250
     74 H14          0.2260    -3.0630     1.9490 ha         1 47        0.145000
     75 H15          2.6170    -3.1710     2.5190 ha         1 47        0.154250
     76 H16          3.5560    -4.2500    -1.5420 ha         1 47        0.154250
     77 H17          1.1740    -4.1000    -2.1400 ha         1 47        0.145000
     78 H18          6.3240    -2.8040     1.4050 hn         1 47        0.336250
     79 H19          3.9160    -1.1310     1.2800 h1         1 47        0.117200
     80 H20          7.0440    -0.1670     3.2050 ho         1 47        0.452750
     81 H21          4.8840     0.2580    -0.6240 h1         1 47        0.102575
     82 H22          4.3030    -1.3250    -1.0800 h1         1 47        0.102575
     83 H23          8.9950     1.6590    -1.9620 h1         1 47        0.102575
     84 H24          7.3070     1.3850    -2.3850 h1         1 47        0.102575
     85 H25          7.6970     3.6710    -1.4620 h1         1 47        0.117200
     86 H26          8.7990     3.4500     2.1500 ho         1 47        0.452750
     87 H27          6.0500     2.4420     0.6260 hn         1 47        0.336250
     88 H28          4.2950     3.1810     1.4890 ha         1 47        0.154250
     89 H29          1.9950     3.0270     2.2590 ha         1 47        0.145000
     90 H30          0.6160     2.9540    -1.8320 ha         1 47        0.145000
     91 H31          2.9370     3.0380    -2.6060 ha         1 47        0.154250
     92 H32         -0.0760     4.4000     2.2990 ha         1 47        0.145000
     93 H33         -2.3720     4.1890     3.1460 ha         1 47        0.154250
     94 H34         -3.1860     1.1590     0.1870 ha         1 47        0.154250
     95 H35         -0.8930     1.3410    -0.6410 ha         1 47        0.145000
     96 H36         -5.1260     2.2470     0.4030 hn         1 47        0.336250
@<TRIPOS>BOND
     1     1     2 2   
     2     2     3 1   
     3     2     4 1   
     4     3    61 1   
     5     4     5 1   
     6     4    60 1   
     7     4    62 1   
     8     5     6 1   
     9     5    63 1   
    10     5    64 1   
    11     6     7 1   
    12     7     8 1   
    13     8     9 1   
    14     8    65 1   
    15     8    66 1   
    16     9    10 1   
    17     9    13 1   
    18     9    67 1   
    19    10    11 2   
    20    10    12 1   
    21    12    68 1   
    22    13    14 1   
    23    13    69 1   
    24    14    15 2   
    25    14    16 1   
    26    16    17 ar  
    27    16    21 ar  
    28    17    18 ar  
    29    17    70 1   
    30    18    19 ar  
    31    18    71 1   
    32    19    20 ar  
    33    19    22 1   
    34    20    21 ar  
    35    20    72 1   
    36    21    73 1   
    37    22    23 ar  
    38    22    27 ar  
    39    23    24 ar  
    40    23    74 1   
    41    24    25 ar  
    42    24    75 1   
    43    25    26 ar  
    44    25    28 1   
    45    26    27 ar  
    46    26    76 1   
    47    27    77 1   
    48    28    29 2   
    49    28    30 1   
    50    30    31 1   
    51    30    78 1   
    52    31    32 1   
    53    31    35 1   
    54    31    79 1   
    55    32    33 2   
    56    32    34 1   
    57    34    80 1   
    58    35    36 1   
    59    35    81 1   
    60    35    82 1   
    61    36    37 1   
    62    37    38 1   
    63    38    39 1   
    64    38    83 1   
    65    38    84 1   
    66    39    40 1   
    67    39    43 1   
    68    39    85 1   
    69    40    41 2   
    70    40    42 1   
    71    42    86 1   
    72    43    44 1   
    73    43    87 1   
    74    44    45 2   
    75    44    46 1   
    76    46    47 ar  
    77    46    51 ar  
    78    47    48 ar  
    79    47    88 1   
    80    48    49 ar  
    81    48    89 1   
    82    49    50 ar  
    83    49    52 1   
    84    50    51 ar  
    85    50    90 1   
    86    51    91 1   
    87    52    53 ar  
    88    52    57 ar  
    89    53    54 ar  
    90    53    92 1   
    91    54    55 ar  
    92    54    93 1   
    93    55    56 ar  
    94    55    58 1   
    95    56    57 ar  
    96    56    94 1   
    97    57    95 1   
    98    58    59 2   
    99    58    60 1   
   100    60    96 1   
@<TRIPOS>SUBSTRUCTURE
     1 47          1 TEMP              0 ****  ****    0 ROOT
