@<TRIPOS>MOLECULE
25
  104   109     1     0     0
SMALL
bcc


@<TRIPOS>ATOM
      1 O1           4.5450     2.8300     0.8450 o          1 25       -0.590100
      2 C1           4.6530     1.9280     0.0200 c          1 25        0.660200
      3 N1           3.8720     1.9160    -1.1120 n          1 25       -0.554400
      4 C2           3.2300     0.7320    -1.6700 c3         1 25        0.094000
      5 C3           1.9200     0.4010    -0.9470 c3         1 25       -0.133900
      6 C4           0.7920     1.4090    -1.2140 c3         1 25        0.162800
      7 N2           1.1590     2.7490    -0.7590 n3         1 25       -0.829200
      8 C5           0.1440     3.7630    -1.0450 c3         1 25        0.160800
      9 C6          -1.0720     3.6860    -0.1170 c3         1 25       -0.104900
     10 C7          -1.9960     4.8850    -0.3480 c3         1 25        0.169800
     11 N3          -3.1650     4.7890     0.5290 n3         1 25       -0.826200
     12 C8          -4.0180     5.9750     0.3860 c3         1 25        0.158300
     13 C9          -5.3150     5.8270     1.1860 c3         1 25       -0.098900
     14 C10         -6.3730     4.9320     0.5240 c3         1 25        0.087500
     15 N4          -5.9300     3.5630     0.2850 n          1 25       -0.482900
     16 C11         -5.5250     3.2430    -1.0130 c          1 25        0.721600
     17 O2          -5.5910     4.0110    -1.9720 o          1 25       -0.602000
     18 C12         -5.0110     1.8570    -1.1890 ca         1 25       -0.111850
     19 C13         -4.5920     1.4340    -2.3970 ca         1 25       -0.063750
     20 C14         -4.1140     0.0770    -2.6040 ca         1 25       -0.063750
     21 C15         -4.0710    -0.8150    -1.5970 ca         1 25       -0.111850
     22 C16         -3.6100    -2.2080    -1.8450 c          1 25        0.721600
     23 O3          -3.2200    -2.5520    -2.9580 o          1 25       -0.602000
     24 N5          -3.6510    -3.0530    -0.7350 n          1 25       -0.482900
     25 C17         -3.2790    -4.4530    -0.9390 c3         1 25        0.087500
     26 C18         -1.8250    -4.7660    -0.5720 c3         1 25       -0.098900
     27 C19         -0.8240    -4.2110    -1.5860 c3         1 25        0.158300
     28 N6           0.5180    -4.6710    -1.2380 n3         1 25       -0.826200
     29 C20          1.5150    -4.2110    -2.2040 c3         1 25        0.169800
     30 C21          2.9370    -4.4890    -1.7030 c3         1 25       -0.104900
     31 C22          3.3780    -3.5960    -0.5350 c3         1 25        0.160800
     32 N7           2.5970    -3.8460     0.6800 n3         1 25       -0.829200
     33 C23          2.8520    -2.8740     1.7430 c3         1 25        0.162800
     34 C24          4.2550    -2.9540     2.3480 c3         1 25       -0.133900
     35 C25          4.4370    -1.8780     3.4180 c3         1 25        0.094000
     36 N8           5.8210    -1.7220     3.8360 n          1 25       -0.554400
     37 C26          6.9020    -1.2690     3.1190 c          1 25        0.660200
     38 O4           8.0370    -1.4030     3.5670 o          1 25       -0.590100
     39 C27          6.7160    -0.6790     1.7740 ca         1 25       -0.135600
     40 C28          7.4910    -1.1840     0.7210 ca         1 25       -0.081000
     41 C29          7.3350    -0.6770    -0.5690 ca         1 25       -0.141000
     42 C30          6.4030     0.3320    -0.8100 ca         1 25       -0.081000
     43 C31          5.6320     0.8390     0.2430 ca         1 25       -0.135600
     44 C32          5.8160     0.3620     1.5450 ca         1 25       -0.068000
     45 C33         -4.0030    -2.6780     0.5700 c          1 25        0.721600
     46 O5          -3.9580    -3.4400     1.5330 o          1 25       -0.602000
     47 C34         -4.4580    -1.2870     0.7960 ca         1 25       -0.111850
     48 C35         -4.8660    -0.8710     2.0700 ca         1 25       -0.063750
     49 C36         -5.3220     0.4360     2.2700 ca         1 25       -0.063750
     50 C37         -5.3740     1.3360     1.1980 ca         1 25       -0.111850
     51 C38         -5.8730     2.7160     1.3990 c          1 25        0.721600
     52 O6          -6.2210     3.0500     2.5300 o          1 25       -0.602000
     53 C39         -4.9610     0.9260    -0.0640 ca         1 25       -0.008500
     54 C40         -4.5000    -0.3910    -0.2650 ca         1 25       -0.008500
     55 H1           3.2480     2.7240    -1.1200 hn         1 25        0.322000
     56 H2           3.0450     0.9340    -2.7300 h1         1 25        0.053450
     57 H3           3.8990    -0.1280    -1.6000 h1         1 25        0.053450
     58 H4           1.5770    -0.5840    -1.2870 hc         1 25        0.049950
     59 H5           2.0960     0.3200     0.1330 hc         1 25        0.049950
     60 H6           0.5770     1.4240    -2.2890 h1         1 25        0.041200
     61 H7          -0.1090     1.0600    -0.6980 h1         1 25        0.041200
     62 H8           1.3640     2.7370     0.2430 hn         1 25        0.363800
     63 H9           0.6240     4.7400    -0.9180 h1         1 25        0.040950
     64 H10         -0.1670     3.7100    -2.0950 h1         1 25        0.040950
     65 H11         -0.7400     3.6740     0.9290 hc         1 25        0.049700
     66 H12         -1.6250     2.7560    -0.2940 hc         1 25        0.049700
     67 H13         -1.4460     5.8120    -0.1470 h1         1 25        0.031200
     68 H14         -2.3190     4.8990    -1.3950 h1         1 25        0.031200
     69 H15         -2.8590     4.7220     1.5020 hn         1 25        0.360800
     70 H16         -3.4750     6.8510     0.7600 h1         1 25        0.036450
     71 H17         -4.2580     6.1610    -0.6680 h1         1 25        0.036450
     72 H18         -5.0900     5.4680     2.1980 hc         1 25        0.060700
     73 H19         -5.7560     6.8240     1.3100 hc         1 25        0.060700
     74 H20         -7.2560     4.8980     1.1740 h1         1 25        0.075200
     75 H21         -6.7010     5.3950    -0.4140 h1         1 25        0.075200
     76 H22         -4.6130     2.0910    -3.2640 ha         1 25        0.173000
     77 H23         -3.8110    -0.1920    -3.6140 ha         1 25        0.173000
     78 H24         -3.4760    -4.7480    -1.9770 h1         1 25        0.075200
     79 H25         -3.9340    -5.0730    -0.3150 h1         1 25        0.075200
     80 H26         -1.5940    -4.3830     0.4300 hc         1 25        0.060700
     81 H27         -1.7170    -5.8580    -0.5280 hc         1 25        0.060700
     82 H28         -1.0880    -4.5610    -2.5910 h1         1 25        0.036450
     83 H29         -0.8550    -3.1160    -1.5820 h1         1 25        0.036450
     84 H30          0.7890    -4.3170    -0.3120 hn         1 25        0.360800
     85 H31          1.3650    -4.7390    -3.1530 h1         1 25        0.031200
     86 H32          1.4080    -3.1370    -2.3980 h1         1 25        0.031200
     87 H33          3.6290    -4.3170    -2.5370 hc         1 25        0.049700
     88 H34          3.0430    -5.5470    -1.4290 hc         1 25        0.049700
     89 H35          4.4400    -3.7890    -0.3460 h1         1 25        0.040950
     90 H36          3.2820    -2.5470    -0.8390 h1         1 25        0.040950
     91 H37          2.7890    -4.7920     1.0130 hn         1 25        0.363800
     92 H38          2.1150    -3.0490     2.5360 h1         1 25        0.041200
     93 H39          2.6560    -1.8620     1.3670 h1         1 25        0.041200
     94 H40          4.4270    -3.9450     2.7880 hc         1 25        0.049950
     95 H41          5.0060    -2.8310     1.5630 hc         1 25        0.049950
     96 H42          4.0620    -0.9130     3.0740 h1         1 25        0.053450
     97 H43          3.8640    -2.1430     4.3130 h1         1 25        0.053450
     98 H44          6.0990    -2.1570     4.7090 hn         1 25        0.322000
     99 H45          8.2190    -1.9700     0.9120 ha         1 25        0.149500
    100 H46          7.9460    -1.0620    -1.3820 ha         1 25        0.143000
    101 H47          6.2960     0.7390    -1.8140 ha         1 25        0.149500
    102 H48          5.2650     0.8100     2.3680 ha         1 25        0.155000
    103 H49         -4.8390    -1.5640     2.9110 ha         1 25        0.173000
    104 H50         -5.6420     0.7460     3.2640 ha         1 25        0.173000
@<TRIPOS>BOND
     1     1     2 2   
     2     2     3 1   
     3     2    43 1   
     4     3     4 1   
     5     3    55 1   
     6     4     5 1   
     7     4    56 1   
     8     4    57 1   
     9     5     6 1   
    10     5    58 1   
    11     5    59 1   
    12     6     7 1   
    13     6    60 1   
    14     6    61 1   
    15     7     8 1   
    16     7    62 1   
    17     8     9 1   
    18     8    63 1   
    19     8    64 1   
    20     9    10 1   
    21     9    65 1   
    22     9    66 1   
    23    10    11 1   
    24    10    67 1   
    25    10    68 1   
    26    11    12 1   
    27    11    69 1   
    28    12    13 1   
    29    12    70 1   
    30    12    71 1   
    31    13    14 1   
    32    13    72 1   
    33    13    73 1   
    34    14    15 1   
    35    14    74 1   
    36    14    75 1   
    37    15    16 1   
    38    15    51 1   
    39    16    17 2   
    40    16    18 1   
    41    18    19 ar  
    42    18    53 ar  
    43    19    20 ar  
    44    19    76 1   
    45    20    21 ar  
    46    20    77 1   
    47    21    22 1   
    48    21    54 ar  
    49    22    23 2   
    50    22    24 1   
    51    24    25 1   
    52    24    45 1   
    53    25    26 1   
    54    25    78 1   
    55    25    79 1   
    56    26    27 1   
    57    26    80 1   
    58    26    81 1   
    59    27    28 1   
    60    27    82 1   
    61    27    83 1   
    62    28    29 1   
    63    28    84 1   
    64    29    30 1   
    65    29    85 1   
    66    29    86 1   
    67    30    31 1   
    68    30    87 1   
    69    30    88 1   
    70    31    32 1   
    71    31    89 1   
    72    31    90 1   
    73    32    33 1   
    74    32    91 1   
    75    33    34 1   
    76    33    92 1   
    77    33    93 1   
    78    34    35 1   
    79    34    94 1   
    80    34    95 1   
    81    35    36 1   
    82    35    96 1   
    83    35    97 1   
    84    36    37 1   
    85    36    98 1   
    86    37    38 2   
    87    37    39 1   
    88    39    40 ar  
    89    39    44 ar  
    90    40    41 ar  
    91    40    99 1   
    92    41    42 ar  
    93    41   100 1   
    94    42    43 ar  
    95    42   101 1   
    96    43    44 ar  
    97    44   102 1   
    98    45    46 2   
    99    45    47 1   
   100    47    48 ar  
   101    47    54 ar  
   102    48    49 ar  
   103    48   103 1   
   104    49    50 ar  
   105    49   104 1   
   106    50    51 1   
   107    50    53 ar  
   108    51    52 2   
   109    53    54 ar  
@<TRIPOS>SUBSTRUCTURE
     1 25          1 TEMP              0 ****  ****    0 ROOT
