@<TRIPOS>MOLECULE
185
   48    52     1     0     0
SMALL
bcc


@<TRIPOS>ATOM
      1 C           -3.2310     2.9750    -0.4580 c3         0 185       0.178700
      2 O           -3.8040     2.2120     0.6060 os         0 185      -0.393100
      3 C1          -3.6310     0.9050     0.2890 ca         0 185       0.688300
      4 N           -3.4320     0.0110     1.2490 nb         0 185      -0.294500
      5 N1          -3.2760    -1.2330     0.9500 nb         0 185      -0.294500
      6 C2          -3.3120    -1.6200    -0.3180 ca         0 185       0.688300
      7 O1          -3.1570    -2.9300    -0.6340 os         0 185      -0.393100
      8 C3          -2.4530    -3.5360     0.4520 c3         0 185       0.178700
      9 C4          -0.9690    -3.3970     0.2280 ca         0 185      -0.127300
     10 C5          -0.1330    -3.1130     1.2920 ca         0 185      -0.106000
     11 C6           1.2270    -2.9780     1.0880 ca         0 185      -0.106000
     12 C7           1.7520    -3.1290    -0.1820 ca         0 185      -0.127300
     13 C8           3.2340    -2.9770    -0.4090 c3         0 185       0.178700
     14 O2           3.8020    -2.2050     0.6510 os         0 185      -0.393100
     15 C9           3.6300    -0.9010     0.3210 ca         0 185       0.688300
     16 N2           3.2930    -0.0200     1.2530 nb         0 185      -0.294500
     17 N3           3.1370     1.2220     0.9410 nb         0 185      -0.294500
     18 C10          3.3130     1.6180    -0.3130 ca         0 185       0.688300
     19 O3           3.1600     2.9240    -0.6400 os         0 185      -0.393100
     20 C11          2.4480     3.5400     0.4340 c3         0 185       0.178700
     21 C12          0.9660     3.3980     0.2010 ca         0 185      -0.127300
     22 C13          0.4720     3.3480    -1.0890 ca         0 185      -0.106000
     23 C14         -0.8880     3.2130    -1.3020 ca         0 185      -0.106000
     24 C15         -1.7500     3.1280    -0.2240 ca         0 185      -0.127300
     25 C16         -1.2530     3.1820     1.0640 ca         0 185      -0.106000
     26 C17          0.1020     3.3180     1.2770 ca         0 185      -0.106000
     27 N4           3.6420     0.7340    -1.2470 nb         0 185      -0.294500
     28 N5           3.7980    -0.5070    -0.9350 nb         0 185      -0.294500
     29 C18          0.9180    -3.4210    -1.2440 ca         0 185      -0.106000
     30 C19         -0.4430    -3.5550    -1.0400 ca         0 185      -0.106000
     31 N6          -3.5030    -0.7250    -1.2790 nb         0 185      -0.294500
     32 N7          -3.6590     0.5200    -0.9800 nb         0 185      -0.294500
     33 H           -3.3980     2.4610    -1.4050 h1         0 185       0.079700
     34 H1          -3.6970     3.9590    -0.4910 h1         0 185       0.079700
     35 H2          -2.7280    -3.0430     1.3840 h1         0 185       0.079700
     36 H3          -2.7140    -4.5930     0.5090 h1         0 185       0.079700
     37 H4          -0.5440    -2.9950     2.2840 ha         0 185       0.147500
     38 H5           1.8790    -2.7540     1.9190 ha         0 185       0.147500
     39 H6           3.7010    -3.9610    -0.4320 h1         0 185       0.079700
     40 H7           3.4060    -2.4710    -1.3590 h1         0 185       0.079700
     41 H8           2.7160     3.0550     1.3730 h1         0 185       0.079700
     42 H9           2.7080     4.5980     0.4840 h1         0 185       0.079700
     43 H10          1.1460     3.4150    -1.9290 ha         0 185       0.147500
     44 H11         -1.2750     3.1750    -2.3090 ha         0 185       0.147500
     45 H12         -1.9260     3.1190     1.9060 ha         0 185       0.147500
     46 H13          0.4880     3.3610     2.2840 ha         0 185       0.147500
     47 H14          1.3290    -3.5440    -2.2350 ha         0 185       0.147500
     48 H15         -1.0940    -3.7840    -1.8710 ha         0 185       0.147500
@<TRIPOS>BOND
     1     1     2 1   
     2     1    24 1   
     3     1    33 1   
     4     1    34 1   
     5     2     3 1   
     6     3     4 ar  
     7     3    32 ar  
     8     4     5 ar  
     9     5     6 ar  
    10     6     7 1   
    11     6    31 ar  
    12     7     8 1   
    13     8     9 1   
    14     8    35 1   
    15     8    36 1   
    16     9    10 ar  
    17     9    30 ar  
    18    10    11 ar  
    19    10    37 1   
    20    11    12 ar  
    21    11    38 1   
    22    12    13 1   
    23    12    29 ar  
    24    13    14 1   
    25    13    39 1   
    26    13    40 1   
    27    14    15 1   
    28    15    16 ar  
    29    15    28 ar  
    30    16    17 ar  
    31    17    18 ar  
    32    18    19 1   
    33    18    27 ar  
    34    19    20 1   
    35    20    21 1   
    36    20    41 1   
    37    20    42 1   
    38    21    22 ar  
    39    21    26 ar  
    40    22    23 ar  
    41    22    43 1   
    42    23    24 ar  
    43    23    44 1   
    44    24    25 ar  
    45    25    26 ar  
    46    25    45 1   
    47    26    46 1   
    48    27    28 ar  
    49    29    30 ar  
    50    29    47 1   
    51    30    48 1   
    52    31    32 ar  
@<TRIPOS>SUBSTRUCTURE
     1 185         1 TEMP              0 ****  ****    0 ROOT
