@<TRIPOS>MOLECULE
177
  192   202     1     0     0
SMALL
bcc


@<TRIPOS>ATOM
      1 C           18.4550    -0.5360    -3.6900 c3         0 177      -0.093100
      2 C1          17.8790    -0.5070    -2.2730 c3         0 177      -0.080400
      3 C2          16.3520    -0.5910    -2.3410 c3         0 177      -0.078400
      4 C3          15.7760    -0.5620    -0.9250 c3         0 177      -0.078400
      5 C4          14.2500    -0.6450    -0.9930 c3         0 177      -0.084400
      6 C5          13.6730    -0.6160     0.4240 c3         0 177       0.131650
      7 O           12.2480    -0.6940     0.3600 os         0 177      -0.423600
      8 C6          11.7710    -0.6630     1.7060 c3         0 177       0.175700
      9 C7          10.2660    -0.7420     1.7090 ca         0 177      -0.088300
     10 C8           9.6470    -1.9750     1.7600 ca         0 177      -0.073250
     11 C9           8.2520    -2.0510     1.7640 ca         0 177       0.023000
     12 C10          7.4920    -0.8830     1.7480 ca         0 177      -0.095000
     13 C11          8.1280     0.3540     1.6860 cp         0 177      -0.039250
     14 C12          9.5220     0.4170     1.6660 ca         0 177      -0.110000
     15 C13          7.3120     1.5940     1.6830 cp         0 177      -0.143550
     16 C14          7.5810     2.6560     0.8310 ca         0 177       0.403950
     17 N            6.7980     3.7190     0.8060 nb         0 177      -0.658000
     18 C15          5.7470     3.8240     1.6040 cp         0 177       0.350300
     19 C16          5.4750     2.8400     2.5610 ca         0 177      -0.204800
     20 C17          6.2570     1.7050     2.6050 ca         0 177      -0.092250
     21 C18          4.7840     4.9390     1.4650 cp         0 177       0.350300
     22 C19          5.0100     5.9830     0.5710 ca         0 177      -0.204800
     23 C20          4.0540     6.9800     0.4460 ca         0 177      -0.092250
     24 C21          2.8900     6.8850     1.2100 cp         0 177      -0.143550
     25 C22          2.7530     5.8290     2.1160 ca         0 177       0.403950
     26 N1           3.6880     4.9120     2.2160 nb         0 177      -0.658000
     27 C23          1.7800     7.8620     1.0790 cp         0 177      -0.039250
     28 C24          2.0080     9.1680     0.6680 ca         0 177      -0.110000
     29 C25          0.9540    10.0530     0.5500 ca         0 177      -0.088300
     30 C26          1.2130    11.4810     0.1430 c3         0 177       0.175700
     31 O1           1.1510    11.5890    -1.2810 os         0 177      -0.423600
     32 C27          1.4040    12.9580    -1.6030 c3         0 177       0.131650
     33 C28          1.3520    13.1430    -3.1200 c3         0 177      -0.084400
     34 C29          1.6220    14.6090    -3.4650 c3         0 177      -0.078400
     35 C30          1.5700    14.7950    -4.9830 c3         0 177      -0.078400
     36 C31          1.8400    16.2610    -5.3270 c3         0 177      -0.080400
     37 C32          1.7880    16.4460    -6.8450 c3         0 177      -0.093100
     38 C33         -0.3370     9.6330     0.8050 ca         0 177      -0.073250
     39 C34         -0.5870     8.3090     1.1830 ca         0 177       0.023000
     40 C35          0.4840     7.4250     1.3440 ca         0 177      -0.095000
     41 C36         -1.9340     7.8420     1.3570 cg         0 177      -0.097750
     42 C37         -3.0080     7.3850     1.1840 ch         0 177      -0.101250
     43 C38         -4.4370     7.1780     1.1120 ca         0 177       0.023000
     44 C39         -4.9540     5.8950     0.9640 ca         0 177      -0.085000
     45 C40         -6.3380     5.7060     0.9160 ca         0 177       0.023000
     46 C41         -7.1860     6.8200     0.9990 ca         0 177      -0.098000
     47 C42         -6.6590     8.0880     1.1350 ca         0 177      -0.136000
     48 C43         -5.2970     8.2770     1.1930 ca         0 177      -0.098000
     49 C44         -6.8770     4.3830     0.7970 cg         0 177      -0.101250
     50 C45         -7.5820     3.4260     0.7570 ch         0 177      -0.097750
     51 C46         -8.1840     2.1860     0.3370 ca         0 177       0.023000
     52 C47         -7.4770     0.9950     0.4660 ca         0 177      -0.095000
     53 C48         -8.0380    -0.1950     0.0010 cp         0 177      -0.039250
     54 C49         -9.3150    -0.1840    -0.5550 ca         0 177      -0.110000
     55 C50        -10.0280     0.9980    -0.6400 ca         0 177      -0.088300
     56 C51        -11.4190     0.9930    -1.2210 c3         0 177       0.175700
     57 O2         -12.3700     0.7700    -0.1790 os         0 177      -0.423600
     58 C52        -13.6620     0.7760    -0.7900 c3         0 177       0.131650
     59 C53        -14.7330     0.5410     0.2770 c3         0 177      -0.084400
     60 C54        -16.1150     0.5480    -0.3780 c3         0 177      -0.078400
     61 C55        -17.1860     0.3130     0.6900 c3         0 177      -0.078400
     62 C56        -18.5690     0.3200     0.0350 c3         0 177      -0.080400
     63 C57        -19.6400     0.0850     1.1020 c3         0 177      -0.093100
     64 C58         -9.4750     2.1830    -0.1940 ca         0 177      -0.073250
     65 C59         -7.2710    -1.4520     0.1180 cp         0 177      -0.143550
     66 C60         -7.4800    -2.5190    -0.7570 ca         0 177      -0.092250
     67 C61         -6.6840    -3.6480    -0.6380 ca         0 177      -0.204800
     68 C62         -5.7280    -3.6860     0.3680 cp         0 177       0.350300
     69 N2          -5.6070    -2.6940     1.2410 nb         0 177      -0.658000
     70 C63         -6.3290    -1.5980     1.1490 ca         0 177       0.403950
     71 C64         -4.7600    -4.8110     0.4540 cp         0 177       0.350300
     72 N3          -3.9300    -4.8550     1.4920 nb         0 177      -0.658000
     73 C65         -3.0130    -5.7940     1.5970 ca         0 177       0.403950
     74 C66         -2.8800    -6.7780     0.6250 cp         0 177      -0.143550
     75 C67         -3.7710    -6.7910    -0.4620 ca         0 177      -0.092250
     76 C68         -4.7150    -5.7790    -0.5410 ca         0 177      -0.204800
     77 C69         -1.7700    -7.7540     0.6810 cp         0 177      -0.039250
     78 C70         -1.9630    -9.1090     0.4620 ca         0 177      -0.110000
     79 C71         -0.8950    -9.9860     0.5150 ca         0 177      -0.088300
     80 C72         -1.1210   -11.4620     0.3120 c3         0 177       0.175700
     81 O3          -1.0010   -11.7760    -1.0770 os         0 177      -0.423600
     82 C73         -1.2240   -13.1810    -1.2040 c3         0 177       0.131650
     83 C74         -1.1090   -13.5860    -2.6750 c3         0 177      -0.084400
     84 C75         -1.3480   -15.0910    -2.8100 c3         0 177      -0.078400
     85 C76         -1.2330   -15.4950    -4.2810 c3         0 177      -0.078400
     86 C77         -1.4710   -17.0000    -4.4170 c3         0 177      -0.080400
     87 C78         -1.3570   -17.4040    -5.8880 c3         0 177      -0.093100
     88 C79          0.3790    -9.5080     0.7530 ca         0 177      -0.073250
     89 C80          0.5940    -8.1390     0.9450 ca         0 177       0.023000
     90 C81         -0.4880    -7.2590     0.9270 ca         0 177      -0.095000
     91 C82          1.9340    -7.6510     1.1270 cg         0 177      -0.097750
     92 C83          3.0370    -7.2310     1.0130 ch         0 177      -0.101250
     93 C84          4.4580    -7.0270     1.0430 ca         0 177       0.023000
     94 C85          5.3180    -8.1190     0.8920 ca         0 177      -0.098000
     95 C86          6.6820    -7.9340     0.9230 ca         0 177      -0.136000
     96 C87          7.2120    -6.6700     1.1060 ca         0 177      -0.098000
     97 C88          6.3650    -5.5660     1.2610 ca         0 177       0.023000
     98 C89          4.9820    -5.7490     1.2240 ca         0 177      -0.085000
     99 C90          6.9110    -4.2500     1.4680 cg         0 177      -0.101250
    100 C91          7.5970    -3.3260     1.7510 ch         0 177      -0.097750
    101 H           19.5420    -0.4770    -3.6410 hc         0 177       0.033617
    102 H1          18.1640    -1.4640    -4.1820 hc         0 177       0.033617
    103 H2          18.0700     0.3120    -4.2560 hc         0 177       0.033617
    104 H3          18.2640    -1.3550    -1.7070 hc         0 177       0.038700
    105 H4          18.1700     0.4210    -1.7810 hc         0 177       0.038700
    106 H5          15.9670     0.2580    -2.9080 hc         0 177       0.041700
    107 H6          16.0610    -1.5180    -2.8340 hc         0 177       0.041700
    108 H7          16.1610    -1.4100    -0.3580 hc         0 177       0.039700
    109 H8          16.0670     0.3660    -0.4320 hc         0 177       0.039700
    110 H9          13.8650     0.2030    -1.5590 hc         0 177       0.055950
    111 H10         13.9580    -1.5730    -1.4850 hc         0 177       0.055950
    112 H11         14.0580    -1.4640     0.9900 h1         0 177       0.027700
    113 H12         13.9650     0.3120     0.9160 h1         0 177       0.027700
    114 H13         12.1810    -1.5100     2.2560 h1         0 177       0.038450
    115 H14         12.0870     0.2660     2.1820 h1         0 177       0.038450
    116 H15         10.2390    -2.8770     1.7970 ha         0 177       0.162250
    117 H16          6.4140    -0.9380     1.7820 ha         0 177       0.143500
    118 H17         10.0180     1.3750     1.6090 ha         0 177       0.136250
    119 H18          8.4420     2.6130     0.1800 h4         0 177       0.026600
    120 H19          4.6610     2.9690     3.2590 ha         0 177       0.160500
    121 H20          6.0640     0.9240     3.3260 ha         0 177       0.144250
    122 H21          5.9160     6.0170    -0.0160 ha         0 177       0.160500
    123 H22          4.2060     7.8100    -0.2270 ha         0 177       0.144250
    124 H23          1.8720     5.7680     2.7390 h4         0 177       0.026600
    125 H24          3.0120     9.4940     0.4380 ha         0 177       0.136250
    126 H25          0.4590    12.1290     0.5890 h1         0 177       0.038450
    127 H26          2.2020    11.7830     0.4870 h1         0 177       0.038450
    128 H27          0.6470    13.5870    -1.1340 h1         0 177       0.027700
    129 H28          2.3900    13.2420    -1.2360 h1         0 177       0.027700
    130 H29          2.1080    12.5140    -3.5890 hc         0 177       0.055950
    131 H30          0.3650    12.8600    -3.4870 hc         0 177       0.055950
    132 H31          0.8650    15.2380    -2.9960 hc         0 177       0.039700
    133 H32          2.6080    14.8930    -3.0980 hc         0 177       0.039700
    134 H33          2.3270    14.1660    -5.4520 hc         0 177       0.041700
    135 H34          0.5830    14.5110    -5.3500 hc         0 177       0.041700
    136 H35          1.0830    16.8890    -4.8580 hc         0 177       0.038700
    137 H36          2.8260    16.5440    -4.9600 hc         0 177       0.038700
    138 H37          1.9810    17.4900    -7.0900 hc         0 177       0.033617
    139 H38          2.5450    15.8170    -7.3140 hc         0 177       0.033617
    140 H39          0.8020    16.1620    -7.2120 hc         0 177       0.033617
    141 H40         -1.1580    10.3290     0.7130 ha         0 177       0.162250
    142 H41          0.3080     6.4120     1.6730 ha         0 177       0.143500
    143 H42         -4.2890     5.0480     0.8850 ha         0 177       0.146500
    144 H43         -8.2570     6.6850     0.9550 ha         0 177       0.142750
    145 H44         -7.3210     8.9390     1.1960 ha         0 177       0.138000
    146 H45         -4.8940     9.2730     1.3000 ha         0 177       0.142750
    147 H46         -6.4980     0.9920     0.9230 ha         0 177       0.143500
    148 H47         -9.7490    -1.1020    -0.9220 ha         0 177       0.136250
    149 H48        -11.6170     1.9540    -1.6950 h1         0 177       0.038450
    150 H49        -11.4990     0.1980    -1.9630 h1         0 177       0.038450
    151 H50        -13.8320     1.7400    -1.2700 h1         0 177       0.027700
    152 H51        -13.7140    -0.0160    -1.5380 h1         0 177       0.027700
    153 H52        -14.5620    -0.4230     0.7570 hc         0 177       0.055950
    154 H53        -14.6800     1.3330     1.0240 hc         0 177       0.055950
    155 H54        -16.2860     1.5120    -0.8570 hc         0 177       0.039700
    156 H55        -16.1670    -0.2440    -1.1250 hc         0 177       0.039700
    157 H56        -17.0160    -0.6510     1.1690 hc         0 177       0.041700
    158 H57        -17.1340     1.1050     1.4370 hc         0 177       0.041700
    159 H58        -18.7390     1.2840    -0.4450 hc         0 177       0.038700
    160 H59        -18.6210    -0.4720    -0.7130 hc         0 177       0.038700
    161 H60        -20.6250     0.0900     0.6360 hc         0 177       0.033617
    162 H61        -19.4690    -0.8790     1.5820 hc         0 177       0.033617
    163 H62        -19.5880     0.8770     1.8490 hc         0 177       0.033617
    164 H63        -10.0380     3.1020    -0.2570 ha         0 177       0.162250
    165 H64         -8.2480    -2.4660    -1.5130 ha         0 177       0.144250
    166 H65         -6.8050    -4.4810    -1.3150 ha         0 177       0.160500
    167 H66         -6.1970    -0.8050     1.8710 h4         0 177       0.026600
    168 H67         -2.3530    -5.7990     2.4520 h4         0 177       0.026600
    169 H68         -3.7210    -7.5660    -1.2130 ha         0 177       0.144250
    170 H69         -5.4090    -5.7440    -1.3680 ha         0 177       0.160500
    171 H70         -2.9540    -9.4830     0.2480 ha         0 177       0.136250
    172 H71         -0.3770   -12.0240     0.8770 h1         0 177       0.038450
    173 H72         -2.1190   -11.7280     0.6600 h1         0 177       0.038450
    174 H73         -0.4790   -13.7220    -0.6190 h1         0 177       0.027700
    175 H74         -2.2210   -13.4260    -0.8360 h1         0 177       0.027700
    176 H75         -1.8540   -13.0460    -3.2590 hc         0 177       0.055950
    177 H76         -0.1120   -13.3410    -3.0420 hc         0 177       0.055950
    178 H77         -0.6030   -15.6310    -2.2260 hc         0 177       0.039700
    179 H78         -2.3440   -15.3350    -2.4430 hc         0 177       0.039700
    180 H79         -1.9770   -14.9550    -4.8660 hc         0 177       0.041700
    181 H80         -0.2360   -15.2510    -4.6480 hc         0 177       0.041700
    182 H81         -0.7270   -17.5400    -3.8320 hc         0 177       0.038700
    183 H82         -2.4680   -17.2440    -4.0500 hc         0 177       0.038700
    184 H83         -1.5270   -18.4770    -5.9850 hc         0 177       0.033617
    185 H84         -2.1010   -16.8640    -6.4730 hc         0 177       0.033617
    186 H85         -0.3600   -17.1600    -6.2550 hc         0 177       0.033617
    187 H86          1.2130   -10.1940     0.7930 ha         0 177       0.162250
    188 H87         -0.3350    -6.2040     1.1010 ha         0 177       0.143500
    189 H88          4.9120    -9.1100     0.7500 ha         0 177       0.142750
    190 H89          7.3410    -8.7810     0.8050 ha         0 177       0.138000
    191 H90          8.2840    -6.5340     1.1290 ha         0 177       0.142750
    192 H91          4.3200    -4.9020     1.3340 ha         0 177       0.146500
@<TRIPOS>BOND
     1     1     2 1   
     2     1   101 1   
     3     1   102 1   
     4     1   103 1   
     5     2     3 1   
     6     2   104 1   
     7     2   105 1   
     8     3     4 1   
     9     3   106 1   
    10     3   107 1   
    11     4     5 1   
    12     4   108 1   
    13     4   109 1   
    14     5     6 1   
    15     5   110 1   
    16     5   111 1   
    17     6     7 1   
    18     6   112 1   
    19     6   113 1   
    20     7     8 1   
    21     8     9 1   
    22     8   114 1   
    23     8   115 1   
    24     9    10 ar  
    25     9    14 ar  
    26    10    11 ar  
    27    10   116 1   
    28    11    12 ar  
    29    11   100 1   
    30    12    13 ar  
    31    12   117 1   
    32    13    14 ar  
    33    13    15 1   
    34    14   118 1   
    35    15    16 ar  
    36    15    20 ar  
    37    16    17 ar  
    38    16   119 1   
    39    17    18 ar  
    40    18    19 ar  
    41    18    21 1   
    42    19    20 ar  
    43    19   120 1   
    44    20   121 1   
    45    21    22 ar  
    46    21    26 ar  
    47    22    23 ar  
    48    22   122 1   
    49    23    24 ar  
    50    23   123 1   
    51    24    25 ar  
    52    24    27 1   
    53    25    26 ar  
    54    25   124 1   
    55    27    28 ar  
    56    27    40 ar  
    57    28    29 ar  
    58    28   125 1   
    59    29    30 1   
    60    29    38 ar  
    61    30    31 1   
    62    30   126 1   
    63    30   127 1   
    64    31    32 1   
    65    32    33 1   
    66    32   128 1   
    67    32   129 1   
    68    33    34 1   
    69    33   130 1   
    70    33   131 1   
    71    34    35 1   
    72    34   132 1   
    73    34   133 1   
    74    35    36 1   
    75    35   134 1   
    76    35   135 1   
    77    36    37 1   
    78    36   136 1   
    79    36   137 1   
    80    37   138 1   
    81    37   139 1   
    82    37   140 1   
    83    38    39 ar  
    84    38   141 1   
    85    39    40 ar  
    86    39    41 1   
    87    40   142 1   
    88    41    42 3   
    89    42    43 1   
    90    43    44 ar  
    91    43    48 ar  
    92    44    45 ar  
    93    44   143 1   
    94    45    46 ar  
    95    45    49 1   
    96    46    47 ar  
    97    46   144 1   
    98    47    48 ar  
    99    47   145 1   
   100    48   146 1   
   101    49    50 3   
   102    50    51 1   
   103    51    52 ar  
   104    51    64 ar  
   105    52    53 ar  
   106    52   147 1   
   107    53    54 ar  
   108    53    65 1   
   109    54    55 ar  
   110    54   148 1   
   111    55    56 1   
   112    55    64 ar  
   113    56    57 1   
   114    56   149 1   
   115    56   150 1   
   116    57    58 1   
   117    58    59 1   
   118    58   151 1   
   119    58   152 1   
   120    59    60 1   
   121    59   153 1   
   122    59   154 1   
   123    60    61 1   
   124    60   155 1   
   125    60   156 1   
   126    61    62 1   
   127    61   157 1   
   128    61   158 1   
   129    62    63 1   
   130    62   159 1   
   131    62   160 1   
   132    63   161 1   
   133    63   162 1   
   134    63   163 1   
   135    64   164 1   
   136    65    66 ar  
   137    65    70 ar  
   138    66    67 ar  
   139    66   165 1   
   140    67    68 ar  
   141    67   166 1   
   142    68    69 ar  
   143    68    71 1   
   144    69    70 ar  
   145    70   167 1   
   146    71    72 ar  
   147    71    76 ar  
   148    72    73 ar  
   149    73    74 ar  
   150    73   168 1   
   151    74    75 ar  
   152    74    77 1   
   153    75    76 ar  
   154    75   169 1   
   155    76   170 1   
   156    77    78 ar  
   157    77    90 ar  
   158    78    79 ar  
   159    78   171 1   
   160    79    80 1   
   161    79    88 ar  
   162    80    81 1   
   163    80   172 1   
   164    80   173 1   
   165    81    82 1   
   166    82    83 1   
   167    82   174 1   
   168    82   175 1   
   169    83    84 1   
   170    83   176 1   
   171    83   177 1   
   172    84    85 1   
   173    84   178 1   
   174    84   179 1   
   175    85    86 1   
   176    85   180 1   
   177    85   181 1   
   178    86    87 1   
   179    86   182 1   
   180    86   183 1   
   181    87   184 1   
   182    87   185 1   
   183    87   186 1   
   184    88    89 ar  
   185    88   187 1   
   186    89    90 ar  
   187    89    91 1   
   188    90   188 1   
   189    91    92 3   
   190    92    93 1   
   191    93    94 ar  
   192    93    98 ar  
   193    94    95 ar  
   194    94   189 1   
   195    95    96 ar  
   196    95   190 1   
   197    96    97 ar  
   198    96   191 1   
   199    97    98 ar  
   200    97    99 1   
   201    98   192 1   
   202    99   100 3   
@<TRIPOS>SUBSTRUCTURE
     1 177         1 TEMP              0 ****  ****    0 ROOT
