@<TRIPOS>MOLECULE
DAV
  132   142     1     0     0
SMALL
bcc


@<TRIPOS>ATOM
      1 C            3.4610    -4.4140    -2.2730 ca         0 DAV      -0.108250
      2 C1           3.0800     4.3470     2.1940 ca         0 DAV      -0.108250
      3 C2          -3.4770    -5.2450    -1.7490 ca         0 DAV      -0.108250
      4 C3          -3.8190     3.2530     1.3790 ca         0 DAV      -0.108250
      5 C4           1.2950    -4.0140    -3.1240 ca         0 DAV      -0.101000
      6 C5           1.1750     4.3320     0.8030 ca         0 DAV      -0.101000
      7 C6           1.5870    -4.9970    -0.9540 ca         0 DAV      -0.101000
      8 C7           1.0560     3.4680     3.0380 ca         0 DAV      -0.101000
      9 C8          -1.3670    -5.2250    -0.6900 ca         0 DAV      -0.101000
     10 C9          -1.8650     3.0050     2.6870 ca         0 DAV      -0.101000
     11 C10         -1.6050    -4.5080    -2.9730 ca         0 DAV      -0.101000
     12 C11         -1.7470     4.1230     0.5500 ca         0 DAV      -0.101000
     13 C12          4.0930     0.7840    -2.7760 ca         0 DAV      -0.071750
     14 C13          3.4210    -1.4700     3.0770 ca         0 DAV      -0.071750
     15 C14         -4.0660    -1.9160     2.5860 ca         0 DAV      -0.071750
     16 C15         -4.2460     0.3040    -3.2820 ca         0 DAV      -0.071750
     17 C16          6.3960     0.0570    -3.0410 ca         0 DAV      -0.070500
     18 C17          5.9200     2.1180    -1.9660 ca         0 DAV      -0.070500
     19 C18          5.5660    -2.1940     2.1860 ca         0 DAV      -0.070500
     20 C19          5.4150    -0.1060     3.3780 ca         0 DAV      -0.070500
     21 C20         -6.2460    -1.7310     1.5930 ca         0 DAV      -0.070500
     22 C21         -5.4010     0.0710     2.9780 ca         0 DAV      -0.070500
     23 C22         -6.2390    -1.0550    -3.3700 ca         0 DAV      -0.070500
     24 C23         -6.3670     1.2100    -2.5120 ca         0 DAV      -0.070500
     25 C24          3.2060    -3.1570    -4.4700 c3         0 DAV       0.126300
     26 C25          3.3330     5.0410    -0.2230 c3         0 DAV       0.126300
     27 C26          3.8350    -5.4070     0.0310 c3         0 DAV       0.126300
     28 C27          3.0870     3.2730     4.4760 c3         0 DAV       0.126300
     29 C28         -3.3860    -5.7250     0.7100 c3         0 DAV       0.126300
     30 C29         -3.9960     2.1370     3.6700 c3         0 DAV       0.126300
     31 C30         -3.8260    -4.5050    -4.1330 c3         0 DAV       0.126300
     32 C31         -3.7310     4.4470    -0.9210 c3         0 DAV       0.126300
     33 C32          2.6390    -3.8980    -3.2380 ca         0 DAV      -0.121800
     34 C33          2.4970     4.5600     0.9800 ca         0 DAV      -0.121800
     35 C34          2.9320    -4.9200    -1.1190 ca         0 DAV      -0.121800
     36 C35          2.3810     3.7260     3.1850 ca         0 DAV      -0.121800
     37 C36         -2.7120    -5.3940    -0.6340 ca         0 DAV      -0.121800
     38 C37         -3.2050     2.8270     2.5250 ca         0 DAV      -0.121800
     39 C38         -2.9340    -4.7710    -2.9010 ca         0 DAV      -0.121800
     40 C39         -3.0740     3.9270     0.3810 ca         0 DAV      -0.121800
     41 C40          0.7420    -4.5910    -1.9840 cp         0 DAV      -0.039500
     42 C41          0.4140     3.8200     1.8530 cp         0 DAV      -0.039500
     43 C42         -0.7830    -4.7800    -1.8760 cp         0 DAV      -0.039500
     44 C43         -1.1100     3.6430     1.6940 cp         0 DAV      -0.039500
     45 C44          5.0330    -0.1920    -3.1890 ca         0 DAV      -0.146600
     46 C45          4.5410     1.9150    -2.1370 ca         0 DAV      -0.146600
     47 C46          4.1890    -2.3940     2.3430 ca         0 DAV      -0.146600
     48 C47          4.0310    -0.2760     3.5050 ca         0 DAV      -0.146600
     49 C48         -5.0460    -2.4400     1.8060 ca         0 DAV      -0.146600
     50 C49         -4.2120    -0.6480     3.1630 ca         0 DAV      -0.146600
     51 C50         -4.8600    -0.9120    -3.5470 ca         0 DAV      -0.146600
     52 C51         -4.9760     1.3240    -2.6690 ca         0 DAV      -0.146600
     53 C52          6.8310     1.1970    -2.4800 ca         0 DAV      -0.142250
     54 C53          6.1870    -1.0830     2.7510 ca         0 DAV      -0.142250
     55 C54         -6.4410    -0.4880     2.2250 ca         0 DAV      -0.142250
     56 C55         -7.0050     0.0210    -2.9050 ca         0 DAV      -0.142250
     57 C56          4.6750    -1.4360    -3.7480 c          0 DAV       0.663950
     58 C57          3.5840     2.9990    -1.5770 c          0 DAV       0.663950
     59 C58          3.5680    -3.6320     1.6700 c          0 DAV       0.663950
     60 C59          3.2090     0.8880     4.0860 c          0 DAV       0.663950
     61 C60         -4.8140    -3.8250     1.1600 c          0 DAV       0.663950
     62 C61         -3.0710    -0.0540     4.0100 c          0 DAV       0.663950
     63 C62         -4.0290    -2.1150    -4.0000 c          0 DAV       0.663950
     64 C63         -4.1820     2.5310    -2.1610 c          0 DAV       0.663950
     65 N            3.4690    -1.7510    -4.0930 n          0 DAV      -0.550775
     66 N1           4.0900     3.8900    -0.7730 n          0 DAV      -0.550775
     67 N2           4.2960    -4.2340     0.7860 n          0 DAV      -0.550775
     68 N3           3.8010     2.0330     4.1490 n          0 DAV      -0.550775
     69 N4          -3.6940    -4.4460     1.3800 n          0 DAV      -0.550775
     70 N5          -3.0930     1.1950     4.3490 n          0 DAV      -0.550775
     71 N6          -4.5670    -3.2710    -3.8730 n          0 DAV      -0.550775
     72 N7          -4.6850     3.4540    -1.4110 n          0 DAV      -0.550775
     73 O            5.7050    -2.4080    -3.9420 o          0 DAV      -0.595100
     74 O1           2.1960     3.0080    -1.9180 o          0 DAV      -0.595100
     75 O2           2.2440    -4.0800     1.9790 o          0 DAV      -0.595100
     76 O3           1.8470     0.7200     4.4890 o          0 DAV      -0.595100
     77 O4          -5.8150    -4.4150     0.3250 o          0 DAV      -0.595100
     78 O5          -1.9870    -0.8890     4.4270 o          0 DAV      -0.595100
     79 O6          -2.6980    -1.9620    -4.4990 o          0 DAV      -0.595100
     80 O7          -2.7990     2.6280    -2.5130 o          0 DAV      -0.595100
     81 H            4.5220    -4.4030    -2.4130 ha         0 DAV       0.142250
     82 H1           4.0980     4.6410     2.3610 ha         0 DAV       0.142250
     83 H2          -4.5200    -5.4860    -1.7130 ha         0 DAV       0.142250
     84 H3          -4.8660     3.0810     1.2390 ha         0 DAV       0.142250
     85 H4           0.6580    -3.6610    -3.9080 ha         0 DAV       0.145125
     86 H5           0.7160     4.5450    -0.1390 ha         0 DAV       0.145125
     87 H6           1.1780    -5.3770    -0.0400 ha         0 DAV       0.145125
     88 H7           0.5070     3.0010     3.8290 ha         0 DAV       0.145125
     89 H8          -0.7600    -5.4240     0.1700 ha         0 DAV       0.145125
     90 H9          -1.3850     2.6540     3.5780 ha         0 DAV       0.145125
     91 H10         -1.1860    -4.1050    -3.8710 ha         0 DAV       0.145125
     92 H11         -1.1830     4.6420    -0.1980 ha         0 DAV       0.145125
     93 H12          3.0490     0.6360    -2.9480 ha         0 DAV       0.148500
     94 H13          2.3890    -1.6570     3.2830 ha         0 DAV       0.148500
     95 H14         -3.1720    -2.4780     2.7580 ha         0 DAV       0.148500
     96 H15         -3.2110     0.4520    -3.5180 ha         0 DAV       0.148500
     97 H16          7.1060    -0.6660    -3.3810 ha         0 DAV       0.153375
     98 H17          6.2740     2.9880    -1.4520 ha         0 DAV       0.153375
     99 H18          6.1440    -2.9050     1.6370 ha         0 DAV       0.153375
    100 H19          5.8810     0.7770     3.7600 ha         0 DAV       0.153375
    101 H20         -7.0100    -2.1410     0.9650 ha         0 DAV       0.153375
    102 H21         -5.5170     1.0400     3.4160 ha         0 DAV       0.153375
    103 H22         -6.7090    -1.9890    -3.5940 ha         0 DAV       0.153375
    104 H23         -6.9350     2.0170    -2.0980 ha         0 DAV       0.153375
    105 H24          4.1190    -3.6110    -4.7910 h1         0 DAV       0.075638
    106 H25          2.4910    -3.2010    -5.2630 h1         0 DAV       0.075638
    107 H26          2.6750     5.4510    -0.9610 h1         0 DAV       0.075638
    108 H27          4.0330     5.7890     0.0850 h1         0 DAV       0.075638
    109 H28          3.2720    -6.0650     0.6570 h1         0 DAV       0.075638
    110 H29          4.6900    -5.9270    -0.3510 h1         0 DAV       0.075638
    111 H30          3.7920     4.0060     4.8100 h1         0 DAV       0.075638
    112 H31          2.3580     3.1140     5.2410 h1         0 DAV       0.075638
    113 H32         -4.2860    -6.2800     0.5420 h1         0 DAV       0.075638
    114 H33         -2.7250    -6.3030     1.3200 h1         0 DAV       0.075638
    115 H34         -4.3310     2.8800     4.3610 h1         0 DAV       0.075638
    116 H35         -4.8420     1.6130     3.2780 h1         0 DAV       0.075638
    117 H36         -3.2080    -4.4160    -5.0020 h1         0 DAV       0.075638
    118 H37         -4.5270    -5.2990    -4.2800 h1         0 DAV       0.075638
    119 H38         -4.2170     5.3840    -0.7380 h1         0 DAV       0.075638
    120 H39         -2.9740     4.5780    -1.6630 h1         0 DAV       0.075638
    121 H40         -3.0250    -4.0460     2.0060 hn         0 DAV       0.308250
    122 H41         -2.4870     1.5250     5.0680 hn         0 DAV       0.308250
    123 H42          5.0450     3.7870    -0.4990 hn         0 DAV       0.308250
    124 H43          2.7420    -1.0660    -4.1060 hn         0 DAV       0.308250
    125 H44          5.2090    -3.8710     0.5950 hn         0 DAV       0.308250
    126 H45          4.7790     2.0820     3.9380 hn         0 DAV       0.308250
    127 H46         -5.6560     3.4800    -1.1760 hn         0 DAV       0.308250
    128 H47         -5.5140    -3.3300    -3.5560 hn         0 DAV       0.308250
    129 H48          7.8800     1.3990    -2.4270 ha         0 DAV       0.145000
    130 H49          7.2510    -0.9800     2.7040 ha         0 DAV       0.145000
    131 H50         -7.3750     0.0250     2.1310 ha         0 DAV       0.145000
    132 H51         -8.0700    -0.0620    -2.8490 ha         0 DAV       0.145000
@<TRIPOS>BOND
     1     1    33 ar  
     2     1    35 ar  
     3     1    81 1   
     4     2    34 ar  
     5     2    36 ar  
     6     2    82 1   
     7     3    37 ar  
     8     3    39 ar  
     9     3    83 1   
    10     4    38 ar  
    11     4    40 ar  
    12     4    84 1   
    13     5    33 ar  
    14     5    41 ar  
    15     5    85 1   
    16     6    34 ar  
    17     6    42 ar  
    18     6    86 1   
    19     7    35 ar  
    20     7    41 ar  
    21     7    87 1   
    22     8    36 ar  
    23     8    42 ar  
    24     8    88 1   
    25     9    37 ar  
    26     9    43 ar  
    27     9    89 1   
    28    10    38 ar  
    29    10    44 ar  
    30    10    90 1   
    31    11    39 ar  
    32    11    43 ar  
    33    11    91 1   
    34    12    40 ar  
    35    12    44 ar  
    36    12    92 1   
    37    13    45 ar  
    38    13    46 ar  
    39    13    93 1   
    40    14    47 ar  
    41    14    48 ar  
    42    14    94 1   
    43    15    49 ar  
    44    15    50 ar  
    45    15    95 1   
    46    16    51 ar  
    47    16    52 ar  
    48    16    96 1   
    49    17    45 ar  
    50    17    53 ar  
    51    17    97 1   
    52    18    46 ar  
    53    18    53 ar  
    54    18    98 1   
    55    19    47 ar  
    56    19    54 ar  
    57    19    99 1   
    58    20    48 ar  
    59    20    54 ar  
    60    20   100 1   
    61    21    49 ar  
    62    21    55 ar  
    63    21   101 1   
    64    22    50 ar  
    65    22    55 ar  
    66    22   102 1   
    67    23    51 ar  
    68    23    56 ar  
    69    23   103 1   
    70    24    52 ar  
    71    24    56 ar  
    72    24   104 1   
    73    25    33 1   
    74    25    65 1   
    75    25   105 1   
    76    25   106 1   
    77    26    34 1   
    78    26    66 1   
    79    26   107 1   
    80    26   108 1   
    81    27    35 1   
    82    27    67 1   
    83    27   109 1   
    84    27   110 1   
    85    28    36 1   
    86    28    68 1   
    87    28   111 1   
    88    28   112 1   
    89    29    37 1   
    90    29    69 1   
    91    29   113 1   
    92    29   114 1   
    93    30    38 1   
    94    30    70 1   
    95    30   115 1   
    96    30   116 1   
    97    31    39 1   
    98    31    71 1   
    99    31   117 1   
   100    31   118 1   
   101    32    40 1   
   102    32    72 1   
   103    32   119 1   
   104    32   120 1   
   105    41    43 1   
   106    42    44 1   
   107    45    57 1   
   108    46    58 1   
   109    47    59 1   
   110    48    60 1   
   111    49    61 1   
   112    50    62 1   
   113    51    63 1   
   114    52    64 1   
   115    53   129 1   
   116    54   130 1   
   117    55   131 1   
   118    56   132 1   
   119    57    65 1   
   120    57    73 2   
   121    58    66 1   
   122    58    74 2   
   123    59    67 1   
   124    59    75 2   
   125    60    68 1   
   126    60    76 2   
   127    61    69 1   
   128    61    77 2   
   129    62    70 1   
   130    62    78 2   
   131    63    71 1   
   132    63    79 2   
   133    64    72 1   
   134    64    80 2   
   135    65   124 1   
   136    66   123 1   
   137    67   125 1   
   138    68   126 1   
   139    69   121 1   
   140    70   122 1   
   141    71   128 1   
   142    72   127 1   
@<TRIPOS>SUBSTRUCTURE
     1 DAV         1 TEMP              0 ****  ****    0 ROOT
