@<TRIPOS>MOLECULE
75
   64    74     1     0     0
SMALL
bcc


@<TRIPOS>ATOM
      1 H           -6.9530     3.6470     0.5290 ha         0 75        0.137000
      2 C           -6.0300     3.0940     0.4390 ca         0 75       -0.158000
      3 C1          -4.8210     3.7670     0.4800 ca         0 75       -0.078000
      4 C2          -3.6260     3.0610     0.3750 ca         0 75        0.007000
      5 C3          -3.6500     1.6570     0.2620 ca         0 75       -0.009200
      6 N           -2.6450     0.7150     0.2170 na         0 75       -0.155300
      7 C4          -3.1800    -0.5520     0.0620 ca         0 75       -0.048200
      8 C5          -4.5750    -0.4380     0.0170 cp         0 75       -0.045000
      9 C6          -5.3640    -1.5790    -0.1640 ca         0 75       -0.103000
     10 C7          -4.7830    -2.8060    -0.2920 ca         0 75       -0.103000
     11 C8          -3.3930    -2.9420    -0.2260 cp         0 75       -0.045000
     12 C9          -2.5850    -1.8160    -0.0350 ca         0 75       -0.048200
     13 N1          -1.2660    -2.2320     0.0340 na         0 75       -0.155300
     14 C10         -1.1820    -3.5990    -0.1300 ca         0 75       -0.009200
     15 C11         -2.4790    -4.0970    -0.3190 cp         0 75       -0.076000
     16 C12         -2.6770    -5.4580    -0.5460 ca         0 75       -0.068000
     17 C13         -1.6000    -6.3200    -0.5720 ca         0 75       -0.158000
     18 H1          -1.7600    -7.3720    -0.7590 ha         0 75        0.137000
     19 C14         -0.3180    -5.8490    -0.3600 ca         0 75       -0.078000
     20 C15         -0.0940    -4.4930    -0.1260 ca         0 75        0.007000
     21 C16          1.2320    -4.0160     0.1250 cg         0 75       -0.101000
     22 C17          2.3640    -3.7490     0.3490 ch         0 75       -0.101000
     23 C18          3.6280    -3.0620     0.3540 ca         0 75        0.007000
     24 C19          3.6510    -1.6590     0.2470 ca         0 75       -0.009200
     25 N2           2.6440    -0.7170     0.1930 na         0 75       -0.155300
     26 C20          3.1800     0.5520     0.0530 ca         0 75       -0.048200
     27 C21          4.5750     0.4400     0.0250 cp         0 75       -0.045000
     28 C22          5.3650     1.5830    -0.1390 ca         0 75       -0.103000
     29 C23          4.7840     2.8100    -0.2680 ca         0 75       -0.103000
     30 C24          3.3930     2.9440    -0.2190 cp         0 75       -0.045000
     31 C25          2.5840     1.8150    -0.0440 ca         0 75       -0.048200
     32 N3           1.2650     2.2290     0.0140 na         0 75       -0.155300
     33 C26          1.1810     3.5970    -0.1440 ca         0 75       -0.009200
     34 C27          2.4790     4.0970    -0.3190 cp         0 75       -0.076000
     35 C28          2.6770     5.4600    -0.5420 ca         0 75       -0.068000
     36 C29          1.5990     6.3200    -0.5750 ca         0 75       -0.158000
     37 H2           1.7590     7.3720    -0.7600 ha         0 75        0.137000
     38 C30          0.3160     5.8470    -0.3730 ca         0 75       -0.078000
     39 C31          0.0920     4.4900    -0.1430 ca         0 75        0.007000
     40 C32         -1.2350     4.0130     0.1040 cg         0 75       -0.101000
     41 C33         -2.3620     3.7470     0.3580 ch         0 75       -0.101000
     42 C34          4.8830    -0.9930     0.1870 cp         0 75       -0.076000
     43 C35          6.0680    -1.7200     0.2960 ca         0 75       -0.068000
     44 C36          6.0320    -3.0920     0.4380 ca         0 75       -0.158000
     45 H3           6.9550    -3.6450     0.5300 ha         0 75        0.137000
     46 C37          4.8230    -3.7660     0.4640 ca         0 75       -0.078000
     47 C38         -4.8820     0.9940     0.1850 cp         0 75       -0.076000
     48 C39         -6.0670     1.7220     0.2920 ca         0 75       -0.068000
     49 H4          -4.8050     4.8410     0.5930 ha         0 75        0.142000
     50 H5          -1.6970     0.9120     0.2830 hn         0 75        0.277700
     51 H6          -6.4390    -1.4870    -0.2020 ha         0 75        0.140000
     52 H7          -5.4010    -3.6780    -0.4450 ha         0 75        0.140000
     53 H8          -0.5080    -1.6440     0.1780 hn         0 75        0.277700
     54 H9          -3.6760    -5.8390    -0.7030 ha         0 75        0.140000
     55 H10          0.5160    -6.5360    -0.3760 ha         0 75        0.142000
     56 H11          1.6960    -0.9160     0.2450 hn         0 75        0.277700
     57 H12          6.4410     1.4930    -0.1620 ha         0 75        0.140000
     58 H13          5.4030     3.6840    -0.4090 ha         0 75        0.140000
     59 H14          0.5050     1.6400     0.1460 hn         0 75        0.277700
     60 H15          3.6760     5.8420    -0.6890 ha         0 75        0.140000
     61 H16         -0.5190     6.5330    -0.3930 ha         0 75        0.142000
     62 H17          7.0180    -1.2070     0.2680 ha         0 75        0.140000
     63 H18          4.8080    -4.8410     0.5690 ha         0 75        0.142000
     64 H19         -7.0170     1.2100     0.2560 ha         0 75        0.140000
@<TRIPOS>BOND
     1     1     2 1   
     2     2     3 ar  
     3     2    48 ar  
     4     3     4 ar  
     5     3    49 1   
     6     4     5 ar  
     7     4    41 1   
     8     5     6 1   
     9     5    47 ar  
    10     6     7 1   
    11     6    50 1   
    12     7     8 ar  
    13     7    12 ar  
    14     8     9 ar  
    15     8    47 1   
    16     9    10 ar  
    17     9    51 1   
    18    10    11 ar  
    19    10    52 1   
    20    11    12 ar  
    21    11    15 1   
    22    12    13 1   
    23    13    14 1   
    24    13    53 1   
    25    14    15 ar  
    26    14    20 ar  
    27    15    16 ar  
    28    16    17 ar  
    29    16    54 1   
    30    17    18 1   
    31    17    19 ar  
    32    19    20 ar  
    33    19    55 1   
    34    20    21 1   
    35    21    22 3   
    36    22    23 1   
    37    23    24 ar  
    38    23    46 ar  
    39    24    25 1   
    40    24    42 ar  
    41    25    26 1   
    42    25    56 1   
    43    26    27 ar  
    44    26    31 ar  
    45    27    28 ar  
    46    27    42 1   
    47    28    29 ar  
    48    28    57 1   
    49    29    30 ar  
    50    29    58 1   
    51    30    31 ar  
    52    30    34 1   
    53    31    32 1   
    54    32    33 1   
    55    32    59 1   
    56    33    34 ar  
    57    33    39 ar  
    58    34    35 ar  
    59    35    36 ar  
    60    35    60 1   
    61    36    37 1   
    62    36    38 ar  
    63    38    39 ar  
    64    38    61 1   
    65    39    40 1   
    66    40    41 3   
    67    42    43 ar  
    68    43    44 ar  
    69    43    62 1   
    70    44    45 1   
    71    44    46 ar  
    72    46    63 1   
    73    47    48 ar  
    74    48    64 1   
@<TRIPOS>SUBSTRUCTURE
     1 75          1 TEMP              0 ****  ****    0 ROOT
