@<TRIPOS>MOLECULE
-args
  132   140     1     0     0
SMALL
bcc


@<TRIPOS>ATOM
      1 O1          -2.1920    -0.5230     3.6670 o          1 -arg     -0.597250
      2 C1          -2.4080    -0.5870     2.4600 c          1 -arg      0.716350
      3 C2          -3.2730     0.4360     1.8280 ca         1 -arg     -0.114475
      4 C3          -3.8010     1.4670     2.6130 ca         1 -arg     -0.061500
      5 C4          -4.5870     2.4540     2.0250 ca         1 -arg     -0.061500
      6 C5          -4.8460     2.4150     0.6490 ca         1 -arg     -0.114475
      7 C6          -5.6430     3.4980     0.0310 c          1 -arg      0.716350
      8 O2          -6.0990     4.3820     0.7510 o          1 -arg     -0.597250
      9 N1          -5.8000     3.4560    -1.3550 n          1 -arg     -0.488900
     10 C7          -6.4190     4.6130    -2.0040 c3         1 -arg      0.083500
     11 C8          -5.3800     5.5760    -2.6060 c3         1 -arg     -0.097150
     12 C9          -4.3400     6.0430    -1.5850 c3         1 -arg     -0.079400
     13 C10         -3.3460     7.0500    -2.1660 c3         1 -arg     -0.078900
     14 C11         -2.2020     7.2730    -1.1740 c3         1 -arg     -0.079400
     15 C12         -1.2060     8.3330    -1.6490 c3         1 -arg     -0.078150
     16 C13          0.0680     8.3480    -0.7960 c3         1 -arg     -0.078900
     17 C14         -0.1600     8.8250     0.6450 c3         1 -arg     -0.078900
     18 C15          0.6790     8.0690     1.6800 c3         1 -arg     -0.078150
     19 C16          0.2100     6.6210     1.8750 c3         1 -arg     -0.079400
     20 C17          0.9390     5.9470     3.0410 c3         1 -arg     -0.078900
     21 C18          0.5000     4.4960     3.2660 c3         1 -arg     -0.079400
     22 C19          1.0340     3.5370     2.1990 c3         1 -arg     -0.097150
     23 C20          0.6220     2.0890     2.4880 c3         1 -arg      0.083500
     24 N2           1.2320     1.1640     1.5320 n          1 -arg     -0.488900
     25 C21          0.5640     0.9360     0.3310 c          1 -arg      0.716350
     26 O3          -0.5290     1.4220     0.0510 o          1 -arg     -0.597250
     27 C22          1.2300     0.0470    -0.6510 ca         1 -arg     -0.114475
     28 C23          0.6070    -0.2160    -1.8760 ca         1 -arg     -0.061500
     29 C24          1.2130    -1.0670    -2.7990 ca         1 -arg     -0.061500
     30 C25          2.4520    -1.6490    -2.5080 ca         1 -arg     -0.114475
     31 C26          3.0860    -2.5500    -3.4990 c          1 -arg      0.716350
     32 O4           2.4990    -2.7840    -4.5530 o          1 -arg     -0.597250
     33 N3           4.3330    -3.0800    -3.1680 n          1 -arg     -0.488900
     34 C27          4.9650    -3.9760    -4.1360 c3         1 -arg      0.083500
     35 C28          4.4390    -5.4170    -4.0610 c3         1 -arg     -0.097150
     36 C29          4.7280    -6.0900    -2.7170 c3         1 -arg     -0.079400
     37 C30          4.3160    -7.5650    -2.7160 c3         1 -arg     -0.078900
     38 C31          4.5730    -8.2490    -1.3670 c3         1 -arg     -0.079400
     39 C32          3.6460    -7.7880    -0.2370 c3         1 -arg     -0.078150
     40 C33          2.2400    -8.3880    -0.3380 c3         1 -arg     -0.078900
     41 C34          1.1940    -7.6370     0.4910 c3         1 -arg     -0.078900
     42 C35          1.5590    -7.4850     1.9700 c3         1 -arg     -0.078150
     43 C36          0.4190    -6.9160     2.8240 c3         1 -arg     -0.079400
     44 C37         -0.1140    -5.5740     2.3150 c3         1 -arg     -0.078900
     45 C38         -1.1120    -4.9530     3.2950 c3         1 -arg     -0.079400
     46 C39         -1.9150    -3.8030     2.6820 c3         1 -arg     -0.097150
     47 C40         -1.0580    -2.6130     2.2420 c3         1 -arg      0.083500
     48 N4          -1.8820    -1.5730     1.6280 n          1 -arg     -0.488900
     49 C41         -2.1450    -1.6830     0.2630 c          1 -arg      0.716350
     50 O5          -1.6820    -2.5690    -0.4520 o          1 -arg     -0.597250
     51 C42         -3.0220    -0.6550    -0.3410 ca         1 -arg     -0.114475
     52 C43         -3.2990    -0.7060    -1.7130 ca         1 -arg     -0.061500
     53 C44         -4.0720     0.2910    -2.3040 ca         1 -arg     -0.061500
     54 C45         -4.5780     1.3380    -1.5240 ca         1 -arg     -0.114475
     55 C46         -5.3420     2.4270    -2.1760 c          1 -arg      0.716350
     56 O6          -5.5190     2.3870    -3.3900 o          1 -arg     -0.597250
     57 C47         -4.3340     1.3840    -0.1460 ca         1 -arg     -0.008500
     58 C48         -3.5400     0.3730     0.4550 ca         1 -arg     -0.008500
     59 C49          5.0110    -2.8250    -1.9770 c          1 -arg      0.716350
     60 O7           6.1150    -3.2860    -1.6990 o          1 -arg     -0.597250
     61 C50          4.3410    -1.9410    -0.9950 ca         1 -arg     -0.114475
     62 C51          4.9730    -1.6670     0.2240 ca         1 -arg     -0.061500
     63 C52          4.3620    -0.8260     1.1510 ca         1 -arg     -0.061500
     64 C53          3.1170    -0.2550     0.8640 ca         1 -arg     -0.114475
     65 C54          2.4910     0.6560     1.8500 c          1 -arg      0.716350
     66 O8           3.1020     0.9290     2.8790 o          1 -arg     -0.597250
     67 C55          2.4710    -0.5230    -0.3480 ca         1 -arg     -0.008500
     68 C56          3.0940    -1.3820    -1.2940 ca         1 -arg     -0.008500
     69 H1          -3.5930     1.5120     3.6810 ha         1 -arg      0.174250
     70 H2          -4.9850     3.2610     2.6400 ha         1 -arg      0.174250
     71 H3          -7.0800     4.2580    -2.8030 h1         1 -arg      0.074825
     72 H4          -7.0470     5.1560    -1.2890 h1         1 -arg      0.074825
     73 H5          -5.9050     6.4430    -3.0240 hc         1 -arg      0.055325
     74 H6          -4.8650     5.0850    -3.4400 hc         1 -arg      0.055325
     75 H7          -4.8450     6.4920    -0.7210 hc         1 -arg      0.044075
     76 H8          -3.7780     5.1760    -1.2190 hc         1 -arg      0.044075
     77 H9          -3.8570     7.9960    -2.3780 hc         1 -arg      0.040950
     78 H10         -2.9400     6.6750    -3.1130 hc         1 -arg      0.040950
     79 H11         -2.6240     7.5640    -0.2050 hc         1 -arg      0.040700
     80 H12         -1.6760     6.3230    -1.0200 hc         1 -arg      0.040700
     81 H13         -0.9210     8.1220    -2.6870 hc         1 -arg      0.039075
     82 H14         -1.6770     9.3230    -1.6410 hc         1 -arg      0.039075
     83 H15          0.5200     7.3510    -0.8230 hc         1 -arg      0.039950
     84 H16          0.7970     9.0170    -1.2690 hc         1 -arg      0.039950
     85 H17          0.1010     9.8900     0.6960 hc         1 -arg      0.039950
     86 H18         -1.2140     8.7650     0.9340 hc         1 -arg      0.039950
     87 H19          0.6020     8.6020     2.6360 hc         1 -arg      0.039075
     88 H20          1.7370     8.0860     1.3900 hc         1 -arg      0.039075
     89 H21         -0.8690     6.6070     2.0700 hc         1 -arg      0.040700
     90 H22          0.3780     6.0520     0.9560 hc         1 -arg      0.040700
     91 H23          0.7330     6.5140     3.9580 hc         1 -arg      0.040950
     92 H24          2.0230     5.9870     2.8810 hc         1 -arg      0.040950
     93 H25         -0.5940     4.4390     3.3100 hc         1 -arg      0.044075
     94 H26          0.8740     4.1740     4.2460 hc         1 -arg      0.044075
     95 H27          2.1280     3.6100     2.1600 hc         1 -arg      0.055325
     96 H28          0.6650     3.8250     1.2080 hc         1 -arg      0.055325
     97 H29          0.9210     1.8080     3.5050 h1         1 -arg      0.074825
     98 H30         -0.4690     1.9990     2.4380 h1         1 -arg      0.074825
     99 H31         -0.3530     0.2340    -2.1190 ha         1 -arg      0.174250
    100 H32          0.7140    -1.2750    -3.7460 ha         1 -arg      0.174250
    101 H33          6.0520    -3.9740    -3.9970 h1         1 -arg      0.074825
    102 H34          4.7770    -3.5860    -5.1440 h1         1 -arg      0.074825
    103 H35          3.3590    -5.4310    -4.2480 hc         1 -arg      0.055325
    104 H36          4.9090    -5.9960    -4.8650 hc         1 -arg      0.055325
    105 H37          5.7990    -6.0150    -2.4900 hc         1 -arg      0.044075
    106 H38          4.1890    -5.5540    -1.9300 hc         1 -arg      0.044075
    107 H39          4.8960    -8.0910    -3.4840 hc         1 -arg      0.040950
    108 H40          3.2620    -7.6590    -3.0010 hc         1 -arg      0.040950
    109 H41          4.4760    -9.3350    -1.4920 hc         1 -arg      0.040700
    110 H42          5.6120    -8.0620    -1.0690 hc         1 -arg      0.040700
    111 H43          3.5930    -6.6950    -0.2050 hc         1 -arg      0.039075
    112 H44          4.0880    -8.1030     0.7170 hc         1 -arg      0.039075
    113 H45          2.2750    -9.4370    -0.0200 hc         1 -arg      0.039950
    114 H46          1.8970    -8.3920    -1.3780 hc         1 -arg      0.039950
    115 H47          1.0510    -6.6470     0.0440 hc         1 -arg      0.039950
    116 H48          0.2380    -8.1670     0.4020 hc         1 -arg      0.039950
    117 H49          2.4310    -6.8290     2.0710 hc         1 -arg      0.039075
    118 H50          1.8450    -8.4610     2.3800 hc         1 -arg      0.039075
    119 H51         -0.4030    -7.6430     2.8590 hc         1 -arg      0.040700
    120 H52          0.7820    -6.8010     3.8520 hc         1 -arg      0.040700
    121 H53         -0.6080    -5.7200     1.3470 hc         1 -arg      0.040950
    122 H54          0.7240    -4.8870     2.1560 hc         1 -arg      0.040950
    123 H55         -1.8220    -5.7210     3.6280 hc         1 -arg      0.044075
    124 H56         -0.5820    -4.6030     4.1880 hc         1 -arg      0.044075
    125 H57         -2.4910    -4.1820     1.8280 hc         1 -arg      0.055325
    126 H58         -2.6550    -3.4630     3.4180 hc         1 -arg      0.055325
    127 H59         -0.3000    -2.9280     1.5170 h1         1 -arg      0.074825
    128 H60         -0.5230    -2.2000     3.1050 h1         1 -arg      0.074825
    129 H61         -2.8980    -1.5100    -2.3280 ha         1 -arg      0.174250
    130 H62         -4.2640     0.2570    -3.3750 ha         1 -arg      0.174250
    131 H63          5.9440    -2.1030     0.4550 ha         1 -arg      0.174250
    132 H64          4.8640    -0.6140     2.0950 ha         1 -arg      0.174250
@<TRIPOS>BOND
     1     1     2 2   
     2     2     3 1   
     3     2    48 1   
     4     3     4 ar  
     5     3    58 ar  
     6     4     5 ar  
     7     4    69 1   
     8     5     6 ar  
     9     5    70 1   
    10     6     7 1   
    11     6    57 ar  
    12     7     8 2   
    13     7     9 1   
    14     9    10 1   
    15     9    55 1   
    16    10    11 1   
    17    10    71 1   
    18    10    72 1   
    19    11    12 1   
    20    11    73 1   
    21    11    74 1   
    22    12    13 1   
    23    12    75 1   
    24    12    76 1   
    25    13    14 1   
    26    13    77 1   
    27    13    78 1   
    28    14    15 1   
    29    14    79 1   
    30    14    80 1   
    31    15    16 1   
    32    15    81 1   
    33    15    82 1   
    34    16    17 1   
    35    16    83 1   
    36    16    84 1   
    37    17    18 1   
    38    17    85 1   
    39    17    86 1   
    40    18    19 1   
    41    18    87 1   
    42    18    88 1   
    43    19    20 1   
    44    19    89 1   
    45    19    90 1   
    46    20    21 1   
    47    20    91 1   
    48    20    92 1   
    49    21    22 1   
    50    21    93 1   
    51    21    94 1   
    52    22    23 1   
    53    22    95 1   
    54    22    96 1   
    55    23    24 1   
    56    23    97 1   
    57    23    98 1   
    58    24    25 1   
    59    24    65 1   
    60    25    26 2   
    61    25    27 1   
    62    27    28 ar  
    63    27    67 ar  
    64    28    29 ar  
    65    28    99 1   
    66    29    30 ar  
    67    29   100 1   
    68    30    31 1   
    69    30    68 ar  
    70    31    32 2   
    71    31    33 1   
    72    33    34 1   
    73    33    59 1   
    74    34    35 1   
    75    34   101 1   
    76    34   102 1   
    77    35    36 1   
    78    35   103 1   
    79    35   104 1   
    80    36    37 1   
    81    36   105 1   
    82    36   106 1   
    83    37    38 1   
    84    37   107 1   
    85    37   108 1   
    86    38    39 1   
    87    38   109 1   
    88    38   110 1   
    89    39    40 1   
    90    39   111 1   
    91    39   112 1   
    92    40    41 1   
    93    40   113 1   
    94    40   114 1   
    95    41    42 1   
    96    41   115 1   
    97    41   116 1   
    98    42    43 1   
    99    42   117 1   
   100    42   118 1   
   101    43    44 1   
   102    43   119 1   
   103    43   120 1   
   104    44    45 1   
   105    44   121 1   
   106    44   122 1   
   107    45    46 1   
   108    45   123 1   
   109    45   124 1   
   110    46    47 1   
   111    46   125 1   
   112    46   126 1   
   113    47    48 1   
   114    47   127 1   
   115    47   128 1   
   116    48    49 1   
   117    49    50 2   
   118    49    51 1   
   119    51    52 ar  
   120    51    58 ar  
   121    52    53 ar  
   122    52   129 1   
   123    53    54 ar  
   124    53   130 1   
   125    54    55 1   
   126    54    57 ar  
   127    55    56 2   
   128    57    58 ar  
   129    59    60 2   
   130    59    61 1   
   131    61    62 ar  
   132    61    68 ar  
   133    62    63 ar  
   134    62   131 1   
   135    63    64 ar  
   136    63   132 1   
   137    64    65 1   
   138    64    67 ar  
   139    65    66 2   
   140    67    68 ar  
@<TRIPOS>SUBSTRUCTURE
     1 -arg        1 TEMP              0 ****  ****    0 ROOT
