@<TRIPOS>MOLECULE
ASB
  122   128     1     0     0
SMALL
bcc


@<TRIPOS>ATOM
      1 C1          -1.2060    -2.7390     2.7940 c3         1 ASB       0.109700
      2 O1          -0.0130    -2.7170     2.0050 os         1 ASB      -0.479600
      3 C2           1.1010    -2.3070     2.8220 c3         1 ASB       0.172700
      4 C3           2.3380    -2.4380     1.9730 ca         1 ASB      -0.095300
      5 C4           2.7100    -1.4150     1.0870 ca         1 ASB      -0.100000
      6 C5           3.8130    -1.5590     0.2320 ca         1 ASB      -0.122300
      7 C6           4.1890    -0.5080    -0.7920 c3         1 ASB       0.130300
      8 N1           3.6840     0.8360    -0.5280 n          1 ASB      -0.532400
      9 C7           2.5470     1.3170    -1.1500 c          1 ASB       0.652200
     10 O2           1.7440     0.5690    -1.7010 o          1 ASB      -0.520100
     11 C8           2.2970     2.8040    -1.1250 cc         1 ASB      -0.022400
     12 C9           3.3880     3.6830    -1.1370 cd         1 ASB      -0.101000
     13 C10          3.1820     5.0510    -1.2050 cd         1 ASB       0.002500
     14 C11          1.8870     5.5340    -1.2800 cc         1 ASB      -0.091000
     15 C12          0.7960     4.6500    -1.2650 cc         1 ASB      -0.013800
     16 C13         -0.5810     5.1620    -1.3950 cd         1 ASB      -0.013800
     17 C14         -1.2500     5.1000    -2.6310 cd         1 ASB      -0.091000
     18 C15         -2.5470     5.5740    -2.7550 cc         1 ASB       0.002500
     19 C16         -3.1740     6.1120    -1.6450 cc         1 ASB      -0.101000
     20 C17         -2.4970     6.1600    -0.4290 cd         1 ASB      -0.022400
     21 C18         -3.1400     6.7850     0.7460 c          1 ASB       0.652200
     22 O3          -2.5640     7.7400     1.2520 o          1 ASB      -0.520100
     23 N2          -4.2500     6.2260     1.3200 n          1 ASB      -0.532400
     24 C19         -5.0450     5.0800     0.8910 c3         1 ASB       0.130300
     25 C20         -4.2800     3.7720     0.8880 ca         1 ASB      -0.122300
     26 C21         -3.3020     3.5140     1.8610 ca         1 ASB      -0.100000
     27 C22         -2.5440     2.3350     1.8380 ca         1 ASB      -0.095300
     28 C23         -1.4050     2.1550     2.8070 c3         1 ASB       0.172700
     29 O4          -0.2110     2.6050     2.1380 os         1 ASB      -0.479600
     30 C24          0.8910     2.5800     3.0520 c3         1 ASB       0.109700
     31 C25         -2.8150     1.3620     0.8640 ca         1 ASB      -0.100000
     32 C26         -3.8200     1.5550    -0.0960 ca         1 ASB      -0.122300
     33 C27         -4.0810     0.5620    -1.2090 c3         1 ASB       0.130300
     34 N3          -3.6040    -0.7960    -0.9660 n          1 ASB      -0.532400
     35 C28         -2.4040    -1.2460    -1.4860 c          1 ASB       0.652200
     36 O5          -1.5490    -0.4710    -1.9060 o          1 ASB      -0.520100
     37 C29         -2.1540    -2.7320    -1.5150 cc         1 ASB      -0.022400
     38 C30         -3.2350    -3.6060    -1.6920 cd         1 ASB      -0.101000
     39 C31         -3.0190    -4.9690    -1.8120 cd         1 ASB       0.002500
     40 C32         -1.7220    -5.4510    -1.7730 cc         1 ASB      -0.091000
     41 C33         -0.6420    -4.5730    -1.5930 cc         1 ASB      -0.013800
     42 C34          0.7420    -5.0800    -1.6010 cd         1 ASB      -0.013800
     43 C35          1.5410    -4.9540    -2.7530 cd         1 ASB      -0.091000
     44 C36          2.8460    -5.4250    -2.7620 cc         1 ASB       0.002500
     45 C37          3.3500    -6.0230    -1.6220 cc         1 ASB      -0.101000
     46 C38          2.5470    -6.1350    -0.4900 cd         1 ASB      -0.022400
     47 C39          3.0610    -6.8240     0.7120 c          1 ASB       0.652200
     48 O6           2.4360    -7.8040     1.1010 o          1 ASB      -0.520100
     49 N4           4.1010    -6.3000     1.4310 n          1 ASB      -0.532400
     50 C40          4.9340    -5.1350     1.1530 c3         1 ASB       0.130300
     51 C41          4.1700    -3.8260     1.1380 ca         1 ASB      -0.122300
     52 C42          3.0920    -3.6200     2.0130 ca         1 ASB      -0.100000
     53 C43          4.5360    -2.7720     0.2800 ca         1 ASB       0.140100
     54 O7           5.5500    -2.9580    -0.6260 os         1 ASB      -0.355900
     55 C44          6.8300    -2.6740    -0.0390 c3         1 ASB       0.110700
     56 N5           1.2510    -5.6850    -0.4810 na         1 ASB       0.072900
     57 C45          0.4240    -5.9190     0.7390 c3         1 ASB      -0.064900
     58 N6          -0.8690    -3.2220    -1.4540 na         1 ASB       0.072900
     59 C46          0.2610    -2.2740    -1.2450 c3         1 ASB      -0.064900
     60 C47         -4.5470     2.7660    -0.0600 ca         1 ASB       0.140100
     61 O8          -5.4590     3.0040    -1.0590 os         1 ASB      -0.355900
     62 C48         -6.7940     2.6920    -0.6290 c3         1 ASB       0.110700
     63 N7          -1.2090     5.7060    -0.3050 na         1 ASB       0.072900
     64 C49         -0.5180     5.8720     1.0080 c3         1 ASB      -0.064900
     65 N8           1.0110     3.2930    -1.1760 na         1 ASB       0.072900
     66 C50         -0.1320     2.3390    -1.1410 c3         1 ASB      -0.064900
     67 H1          -1.4130    -1.7440     3.2000 h1         1 ASB       0.046367
     68 H2          -1.1160    -3.4720     3.6020 h1         1 ASB       0.046367
     69 H3          -2.0360    -3.0330     2.1450 h1         1 ASB       0.046367
     70 H4           1.1750    -2.9420     3.7130 h1         1 ASB       0.057200
     71 H5           0.9630    -1.2680     3.1430 h1         1 ASB       0.057200
     72 H6           2.1170    -0.5040     1.0650 ha         1 ASB       0.130500
     73 H7           5.2770    -0.3980    -0.8370 h1         1 ASB       0.094200
     74 H8           3.8380    -0.8360    -1.7780 h1         1 ASB       0.094200
     75 H9           4.3200     1.4380    -0.0170 hn         1 ASB       0.353000
     76 H10          4.4140     3.3170    -1.1450 ha         1 ASB       0.224500
     77 H11          4.0320     5.7370    -1.2370 ha         1 ASB       0.226000
     78 H12          1.7370     6.6110    -1.3750 ha         1 ASB       0.215000
     79 H13         -0.7570     4.7010    -3.5190 ha         1 ASB       0.215000
     80 H14         -3.0630     5.5490    -3.7170 ha         1 ASB       0.226000
     81 H15         -4.1790     6.5230    -1.7390 ha         1 ASB       0.224500
     82 H16         -4.6380     6.7830     2.0800 hn         1 ASB       0.353000
     83 H17         -5.8880     4.9950     1.5850 h1         1 ASB       0.094200
     84 H18         -5.4390     5.3200    -0.1000 h1         1 ASB       0.094200
     85 H19         -3.1210     4.2480     2.6470 ha         1 ASB       0.130500
     86 H20         -1.5760     2.7420     3.7170 h1         1 ASB       0.057200
     87 H21         -1.3000     1.0990     3.0860 h1         1 ASB       0.057200
     88 H22          1.0560     1.5640     3.4230 h1         1 ASB       0.046367
     89 H23          1.7840     2.9050     2.5120 h1         1 ASB       0.046367
     90 H24          0.7130     3.2690     3.8830 h1         1 ASB       0.046367
     91 H25         -2.2200     0.4520     0.8570 ha         1 ASB       0.130500
     92 H26         -5.1570     0.4570    -1.3770 h1         1 ASB       0.094200
     93 H27         -3.6270     0.9420    -2.1320 h1         1 ASB       0.094200
     94 H28         -4.2890    -1.4230    -0.5590 hn         1 ASB       0.353000
     95 H29         -4.2550    -3.2370    -1.7910 ha         1 ASB       0.224500
     96 H30         -3.8580    -5.6500    -1.9720 ha         1 ASB       0.226000
     97 H31         -1.5590    -6.5220    -1.9100 ha         1 ASB       0.215000
     98 H32          1.1450    -4.5060    -3.6660 ha         1 ASB       0.215000
     99 H33          3.4610    -5.3490    -3.6600 ha         1 ASB       0.226000
    100 H34          4.3610    -6.4320    -1.6280 ha         1 ASB       0.224500
    101 H35          4.4060    -6.8990     2.1980 hn         1 ASB       0.353000
    102 H36          5.4340    -5.3230     0.1990 h1         1 ASB       0.094200
    103 H37          5.6980    -5.0910     1.9380 h1         1 ASB       0.094200
    104 H38          2.8300    -4.3940     2.7350 ha         1 ASB       0.130500
    105 H39          7.5620    -2.6200    -0.8500 h1         1 ASB       0.062033
    106 H40          6.8300    -1.7130     0.4870 h1         1 ASB       0.062033
    107 H41          7.1330    -3.4750     0.6410 h1         1 ASB       0.062033
    108 H42         -0.3940    -5.2000     0.7860 h1         1 ASB       0.117033
    109 H43          0.0270    -6.9360     0.6790 h1         1 ASB       0.117033
    110 H44          1.0220    -5.7650     1.6380 h1         1 ASB       0.117033
    111 H45          0.4990    -1.8230    -2.2100 h1         1 ASB       0.117033
    112 H46         -0.0170    -1.5410    -0.4850 h1         1 ASB       0.117033
    113 H47          1.1320    -2.8020    -0.8620 h1         1 ASB       0.117033
    114 H48         -6.8480     1.7050    -0.1570 h1         1 ASB       0.062033
    115 H49         -7.4340     2.6820    -1.5170 h1         1 ASB       0.062033
    116 H50         -7.1720     3.4570     0.0550 h1         1 ASB       0.062033
    117 H51          0.2920     5.1490     1.1040 h1         1 ASB       0.117033
    118 H52         -0.1200     6.8890     1.0460 h1         1 ASB       0.117033
    119 H53         -1.2100     5.6710     1.8280 h1         1 ASB       0.117033
    120 H54          0.0650     1.5650    -0.3960 h1         1 ASB       0.117033
    121 H55         -0.2640     1.9420    -2.1490 h1         1 ASB       0.117033
    122 H56         -1.0410     2.8480    -0.8260 h1         1 ASB       0.117033
@<TRIPOS>BOND
     1     1     2 1   
     2     1    67 1   
     3     1    68 1   
     4     1    69 1   
     5     2     3 1   
     6     3     4 1   
     7     3    70 1   
     8     3    71 1   
     9     4     5 ar  
    10     4    52 ar  
    11     5     6 ar  
    12     5    72 1   
    13     6     7 1   
    14     6    53 ar  
    15     7     8 1   
    16     7    73 1   
    17     7    74 1   
    18     8     9 1   
    19     8    75 1   
    20     9    10 2   
    21     9    11 1   
    22    11    12 2   
    23    11    65 1   
    24    12    13 1   
    25    12    76 1   
    26    13    14 2   
    27    13    77 1   
    28    14    15 1   
    29    14    78 1   
    30    15    16 2   
    31    15    65 1   
    32    16    17 1   
    33    16    63 1   
    34    17    18 2   
    35    17    79 1   
    36    18    19 1   
    37    18    80 1   
    38    19    20 2   
    39    19    81 1   
    40    20    21 1   
    41    20    63 1   
    42    21    22 2   
    43    21    23 1   
    44    23    24 1   
    45    23    82 1   
    46    24    25 1   
    47    24    83 1   
    48    24    84 1   
    49    25    26 ar  
    50    25    60 ar  
    51    26    27 ar  
    52    26    85 1   
    53    27    28 1   
    54    27    31 ar  
    55    28    29 1   
    56    28    86 1   
    57    28    87 1   
    58    29    30 1   
    59    30    88 1   
    60    30    89 1   
    61    30    90 1   
    62    31    32 ar  
    63    31    91 1   
    64    32    33 1   
    65    32    60 ar  
    66    33    34 1   
    67    33    92 1   
    68    33    93 1   
    69    34    35 1   
    70    34    94 1   
    71    35    36 2   
    72    35    37 1   
    73    37    38 2   
    74    37    58 1   
    75    38    39 1   
    76    38    95 1   
    77    39    40 2   
    78    39    96 1   
    79    40    41 1   
    80    40    97 1   
    81    41    42 2   
    82    41    58 1   
    83    42    43 1   
    84    42    56 1   
    85    43    44 2   
    86    43    98 1   
    87    44    45 1   
    88    44    99 1   
    89    45    46 2   
    90    45   100 1   
    91    46    47 1   
    92    46    56 1   
    93    47    48 2   
    94    47    49 1   
    95    49    50 1   
    96    49   101 1   
    97    50    51 1   
    98    50   102 1   
    99    50   103 1   
   100    51    52 ar  
   101    51    53 ar  
   102    52   104 1   
   103    53    54 1   
   104    54    55 1   
   105    55   105 1   
   106    55   106 1   
   107    55   107 1   
   108    56    57 1   
   109    57   108 1   
   110    57   109 1   
   111    57   110 1   
   112    58    59 1   
   113    59   111 1   
   114    59   112 1   
   115    59   113 1   
   116    60    61 1   
   117    61    62 1   
   118    62   114 1   
   119    62   115 1   
   120    62   116 1   
   121    63    64 1   
   122    64   117 1   
   123    64   118 1   
   124    64   119 1   
   125    65    66 1   
   126    66   120 1   
   127    66   121 1   
   128    66   122 1   
@<TRIPOS>SUBSTRUCTURE
     1 ASB         1 TEMP              0 ****  ****    0 ROOT
