@<TRIPOS>MOLECULE
199
   64    67     1     0     0
SMALL
bcc


@<TRIPOS>ATOM
      1 O            3.0520    -1.8940     1.6520 o          0 199      -0.549600
      2 C            2.7410    -2.4770     0.6310 c          0 199       0.667700
      3 N            3.7360    -2.8590    -0.1920 n          0 199      -0.531900
      4 C1           4.8500    -2.0060    -0.2350 ca         0 199       0.499700
      5 C2           6.1120    -2.4640    -0.5640 ca         0 199      -0.226300
      6 C3           7.1650    -1.5620    -0.5920 ca         0 199      -0.080500
      7 C4           6.9050    -0.2260    -0.3150 ca         0 199      -0.251300
      8 C5           5.6130     0.1610    -0.0200 ca         0 199       0.413600
      9 C6           5.2900     1.6100     0.2450 c3         0 199       0.079600
     10 O1           3.9790     1.8850    -0.2600 os         0 199      -0.412100
     11 C7           3.7300     3.2760    -0.0510 c3         0 199       0.127400
     12 C8           2.2250     3.5000     0.1130 c3         0 199       0.104400
     13 O2           1.8750     4.8000    -0.3650 os         0 199      -0.422600
     14 C9           0.7300     5.2220     0.3800 c3         0 199       0.098900
     15 C10         -0.5100     5.1780    -0.5140 c3         0 199       0.098900
     16 O3          -1.6530     4.8080     0.2620 os         0 199      -0.422600
     17 C11         -2.3100     3.7610    -0.4530 c3         0 199       0.104400
     18 C12         -3.6700     3.4620     0.1810 c3         0 199       0.127400
     19 O4          -3.8940     2.0510     0.1800 os         0 199      -0.412100
     20 C13         -5.2860     1.8400    -0.0640 c3         0 199       0.079600
     21 C14         -5.5850     0.3620    -0.0220 ca         0 199       0.413600
     22 C15         -6.8670    -0.0800    -0.2820 ca         0 199      -0.251300
     23 C16         -7.1420    -1.4400    -0.2350 ca         0 199      -0.080500
     24 C17         -6.1040    -2.3080     0.0700 ca         0 199      -0.226300
     25 C18         -4.8450    -1.7990     0.3050 ca         0 199       0.499700
     26 N1          -3.7460    -2.6010     0.6100 n          0 199      -0.531900
     27 C19         -2.8640    -2.9340    -0.3460 c          0 199       0.667700
     28 O5          -3.2660    -3.2510    -1.4480 o          0 199      -0.549600
     29 C20         -1.4130    -2.9200    -0.0770 ca         0 199      -0.133100
     30 C21         -0.5030    -3.3430    -1.0450 ca         0 199      -0.098000
     31 C22          0.8520    -3.2400    -0.8120 ca         0 199      -0.098000
     32 C23          1.3130    -2.7150     0.3970 ca         0 199      -0.133100
     33 C24          0.3980    -2.3770     1.4020 ca         0 199      -0.098000
     34 C25         -0.9530    -2.4740     1.1650 ca         0 199      -0.098000
     35 N2          -4.6190    -0.4860     0.2570 nb         0 199      -0.710000
     36 N3           4.6350    -0.7230     0.0260 nb         0 199      -0.710000
     37 H            3.6850    -3.6700    -0.7210 hn         0 199       0.314500
     38 H1           6.2750    -3.5060    -0.7960 ha         0 199       0.174000
     39 H2           8.1670    -1.8910    -0.8230 ha         0 199       0.144000
     40 H3           7.7030     0.5010    -0.3300 ha         0 199       0.146500
     41 H4           5.3170     1.8010     1.3180 h1         0 199       0.061450
     42 H5           6.0170     2.2460    -0.2610 h1         0 199       0.061450
     43 H6           4.2470     3.6070     0.8500 h1         0 199       0.057450
     44 H7           4.0910     3.8430    -0.9080 h1         0 199       0.057450
     45 H8           1.6820     2.7460    -0.4570 h1         0 199       0.042700
     46 H9           1.9580     3.4180     1.1670 h1         0 199       0.042700
     47 H10          0.5870     4.5570     1.2320 h1         0 199       0.054450
     48 H11          0.8840     6.2400     0.7370 h1         0 199       0.054450
     49 H12         -0.6740     6.1620    -0.9550 h1         0 199       0.054450
     50 H13         -0.3590     4.4470    -1.3080 h1         0 199       0.054450
     51 H14         -2.4540     4.0670    -1.4900 h1         0 199       0.042700
     52 H15         -1.6940     2.8630    -0.4260 h1         0 199       0.042700
     53 H16         -3.6820     3.8320     1.2060 h1         0 199       0.057450
     54 H17         -4.4540     3.9560    -0.3930 h1         0 199       0.057450
     55 H18         -5.8700     2.3510     0.7020 h1         0 199       0.061450
     56 H19         -5.5470     2.2360    -1.0450 h1         0 199       0.061450
     57 H20         -7.6490     0.6260    -0.5190 ha         0 199       0.146500
     58 H21         -8.1360    -1.8120    -0.4310 ha         0 199       0.144000
     59 H22         -6.2820    -3.3720     0.1230 ha         0 199       0.174000
     60 H23         -3.6180    -2.9210     1.5170 hn         0 199       0.314500
     61 H24         -0.8600    -3.7530    -1.9790 ha         0 199       0.154750
     62 H25          1.5560    -3.5680    -1.5630 ha         0 199       0.154750
     63 H26          0.7540    -2.0360     2.3620 ha         0 199       0.154750
     64 H27         -1.6580    -2.2140     1.9400 ha         0 199       0.154750
@<TRIPOS>BOND
     1     1     2 2   
     2     2     3 1   
     3     2    32 1   
     4     3     4 1   
     5     3    37 1   
     6     4     5 ar  
     7     4    36 ar  
     8     5     6 ar  
     9     5    38 1   
    10     6     7 ar  
    11     6    39 1   
    12     7     8 ar  
    13     7    40 1   
    14     8     9 1   
    15     8    36 ar  
    16     9    10 1   
    17     9    41 1   
    18     9    42 1   
    19    10    11 1   
    20    11    12 1   
    21    11    43 1   
    22    11    44 1   
    23    12    13 1   
    24    12    45 1   
    25    12    46 1   
    26    13    14 1   
    27    14    15 1   
    28    14    47 1   
    29    14    48 1   
    30    15    16 1   
    31    15    49 1   
    32    15    50 1   
    33    16    17 1   
    34    17    18 1   
    35    17    51 1   
    36    17    52 1   
    37    18    19 1   
    38    18    53 1   
    39    18    54 1   
    40    19    20 1   
    41    20    21 1   
    42    20    55 1   
    43    20    56 1   
    44    21    22 ar  
    45    21    35 ar  
    46    22    23 ar  
    47    22    57 1   
    48    23    24 ar  
    49    23    58 1   
    50    24    25 ar  
    51    24    59 1   
    52    25    26 1   
    53    25    35 ar  
    54    26    27 1   
    55    26    60 1   
    56    27    28 2   
    57    27    29 1   
    58    29    30 ar  
    59    29    34 ar  
    60    30    31 ar  
    61    30    61 1   
    62    31    32 ar  
    63    31    62 1   
    64    32    33 ar  
    65    33    34 ar  
    66    33    63 1   
    67    34    64 1   
@<TRIPOS>SUBSTRUCTURE
     1 199         1 TEMP              0 ****  ****    0 ROOT
