@<TRIPOS>MOLECULE
ASB
   98   102     1     0     0
SMALL
bcc


@<TRIPOS>ATOM
      1 C1          -3.6610    -0.4190     2.8630 c3         1 ASB      -0.066800
      2 C2          -3.8080    -1.0970     1.5140 ca         1 ASB      -0.063050
      3 C3          -3.7950    -2.5190     1.4430 ca         1 ASB      -0.063050
      4 C4          -3.5820    -3.3230     2.7130 c3         1 ASB      -0.066800
      5 C5          -4.1020    -3.1700     0.2160 ca         1 ASB      -0.113800
      6 C6          -4.1530    -4.6910     0.1290 c3         1 ASB       0.129800
      7 N1          -3.3890    -5.2280    -0.9920 n          1 ASB      -0.534900
      8 C7          -2.0790    -5.0300    -1.3330 c2         1 ASB       0.659300
      9 O1          -1.6310    -5.4120    -2.4090 o          1 ASB      -0.575300
     10 C8          -1.1500    -4.3150    -0.4360 cc         1 ASB       0.100500
     11 C9          -0.8400    -4.8980     0.7960 cc         1 ASB      -0.123000
     12 C10          0.1680    -4.3600     1.5770 cd         1 ASB      -0.020000
     13 C11          0.8980    -3.2940     1.0780 cd         1 ASB      -0.123000
     14 C12          0.5960    -2.7630    -0.1850 cc         1 ASB       0.081300
     15 C13          1.5000    -1.7190    -0.7690 c          1 ASB       0.652300
     16 O2           1.0400    -0.8130    -1.4500 o          1 ASB      -0.549100
     17 N2           2.8520    -1.8780    -0.5250 n          1 ASB      -0.534900
     18 C14          3.8570    -1.1210    -1.2600 c3         1 ASB       0.129800
     19 C15          3.9080     0.3630    -0.9190 ca         1 ASB      -0.113800
     20 C16          3.7880     1.3300    -1.9520 ca         1 ASB      -0.063050
     21 C17          3.4890     0.8980    -3.3750 c3         1 ASB      -0.066800
     22 C18          4.0230     2.7000    -1.6690 ca         1 ASB      -0.063050
     23 C19          4.1790     3.6740    -2.8240 c3         1 ASB      -0.066800
     24 C20          4.1330     3.1450    -0.3220 ca         1 ASB      -0.113800
     25 C21          4.2220     4.6360    -0.0190 c3         1 ASB       0.129800
     26 N3           3.1580     5.4140    -0.6470 n          1 ASB      -0.534900
     27 C22          1.8020     5.2540    -0.5810 c2         1 ASB       0.659300
     28 O3           1.0450     5.8850    -1.3110 o          1 ASB      -0.575300
     29 C23          1.1850     4.2870     0.3490 cc         1 ASB       0.100500
     30 C24          1.3210     4.5100     1.7210 cc         1 ASB      -0.123000
     31 C25          0.6000     3.7410     2.6180 cd         1 ASB      -0.020000
     32 C26         -0.3010     2.8130     2.1220 cd         1 ASB      -0.123000
     33 C27         -0.4520     2.6470     0.7370 cc         1 ASB       0.081300
     34 C28         -1.5430     1.7540     0.2270 c          1 ASB       0.652300
     35 O4          -1.3730     1.0820    -0.7800 o          1 ASB      -0.549100
     36 N4          -2.7330     1.7820     0.9330 n          1 ASB      -0.534900
     37 C29         -3.9560     1.2000     0.3950 c3         1 ASB       0.129800
     38 C30         -3.9600    -0.3220     0.3320 ca         1 ASB      -0.113800
     39 C31         -4.2270    -0.9780    -0.8990 ca         1 ASB      -0.063050
     40 C32         -4.3890    -0.1740    -2.1760 c3         1 ASB      -0.066800
     41 C33         -4.4170    -2.3830    -0.9260 ca         1 ASB      -0.063050
     42 C34         -4.9850    -3.0250    -2.1800 c3         1 ASB      -0.066800
     43 N5           0.3300     3.3430    -0.1370 na         1 ASB      -0.292200
     44 C35          0.2580     3.0680    -1.5920 c3         1 ASB       0.134100
     45 C36          4.2140     2.1820     0.7210 ca         1 ASB      -0.063050
     46 C37          4.4630     2.6130     2.1550 c3         1 ASB      -0.066800
     47 C38          4.1860     0.7930     0.4080 ca         1 ASB      -0.063050
     48 C39          4.4560    -0.2210     1.5030 c3         1 ASB      -0.066800
     49 N6          -0.4590    -3.2390    -0.9060 na         1 ASB      -0.292200
     50 C40         -0.8530    -2.5880    -2.1790 c3         1 ASB       0.134100
     51 H1          -2.6040    -0.3710     3.1440 hc         1 ASB       0.054617
     52 H2          -4.2240    -0.9550     3.6350 hc         1 ASB       0.054617
     53 H3          -4.0750     0.5910     2.8830 hc         1 ASB       0.054617
     54 H4          -3.0300    -2.7650     3.4740 hc         1 ASB       0.054617
     55 H5          -4.5480    -3.6270     3.1270 hc         1 ASB       0.054617
     56 H6          -2.9660    -4.2070     2.5430 hc         1 ASB       0.054617
     57 H7          -3.7780    -5.1980     1.0170 h1         1 ASB       0.084950
     58 H8          -5.1950    -5.0110     0.0110 h1         1 ASB       0.084950
     59 H9          -3.9140    -5.7600    -1.6820 hn         1 ASB       0.342000
     60 H10         -1.3650    -5.7910     1.1300 ha         1 ASB       0.195000
     61 H11          0.4120    -4.8000     2.5440 ha         1 ASB       0.194000
     62 H12          1.7140    -2.8890     1.6730 ha         1 ASB       0.195000
     63 H13          3.1940    -2.7480    -0.1360 hn         1 ASB       0.342000
     64 H14          3.6800    -1.3210    -2.3180 h1         1 ASB       0.084950
     65 H15          4.8360    -1.5660    -1.0430 h1         1 ASB       0.084950
     66 H16          4.3900     0.4940    -3.8460 hc         1 ASB       0.054617
     67 H17          2.6880     0.1530    -3.3990 hc         1 ASB       0.054617
     68 H18          3.1080     1.7180    -3.9910 hc         1 ASB       0.054617
     69 H19          4.7130     3.2070    -3.6590 hc         1 ASB       0.054617
     70 H20          3.2010     4.0190    -3.1700 hc         1 ASB       0.054617
     71 H21          4.7950     4.5370    -2.5600 hc         1 ASB       0.054617
     72 H22          4.1800     4.8760     1.0420 h1         1 ASB       0.084950
     73 H23          5.1810     5.0220    -0.3820 h1         1 ASB       0.084950
     74 H24          3.4530     6.1320    -1.3040 hn         1 ASB       0.342000
     75 H25          1.9660     5.3070     2.0890 ha         1 ASB       0.195000
     76 H26          0.7050     3.8990     3.6910 ha         1 ASB       0.194000
     77 H27         -0.8950     2.2280     2.8220 ha         1 ASB       0.195000
     78 H28         -2.8890     2.5020     1.6280 hn         1 ASB       0.342000
     79 H29         -4.7890     1.5290     1.0280 h1         1 ASB       0.084950
     80 H30         -4.1250     1.6790    -0.5710 h1         1 ASB       0.084950
     81 H31         -5.3750     0.2980    -2.2020 hc         1 ASB       0.054617
     82 H32         -3.6080     0.5870    -2.2630 hc         1 ASB       0.054617
     83 H33         -4.2670    -0.7850    -3.0750 hc         1 ASB       0.054617
     84 H34         -4.1890    -3.2230    -2.9040 hc         1 ASB       0.054617
     85 H35         -5.7400    -2.3800    -2.6410 hc         1 ASB       0.054617
     86 H36         -5.5190    -3.9540    -1.9660 hc         1 ASB       0.054617
     87 H37          0.5130     2.0170    -1.7500 h1         1 ASB       0.116700
     88 H38          0.9830     3.6440    -2.1610 h1         1 ASB       0.116700
     89 H39         -0.7490     3.3130    -1.9370 h1         1 ASB       0.116700
     90 H40          3.8700     3.4840     2.4330 hc         1 ASB       0.054617
     91 H41          5.5240     2.8360     2.2970 hc         1 ASB       0.054617
     92 H42          4.1610     1.8520     2.8790 hc         1 ASB       0.054617
     93 H43          4.8090    -1.1810     1.1200 hc         1 ASB       0.054617
     94 H44          3.5480    -0.3900     2.0890 hc         1 ASB       0.054617
     95 H45          5.2620     0.1180     2.1620 hc         1 ASB       0.054617
     96 H46         -0.0260    -2.6860    -2.8860 h1         1 ASB       0.116700
     97 H47         -1.0990    -1.5450    -1.9620 h1         1 ASB       0.116700
     98 H48         -1.7500    -3.0260    -2.6120 h1         1 ASB       0.116700
@<TRIPOS>BOND
     1     1     2 1   
     2     1    51 1   
     3     1    52 1   
     4     1    53 1   
     5     2     3 ar  
     6     2    38 ar  
     7     3     4 1   
     8     3     5 ar  
     9     4    54 1   
    10     4    55 1   
    11     4    56 1   
    12     5     6 1   
    13     5    41 ar  
    14     6     7 1   
    15     6    57 1   
    16     6    58 1   
    17     7     8 1   
    18     7    59 1   
    19     8     9 1   
    20     8    10 2   
    21    10    11 1   
    22    10    49 1   
    23    11    12 2   
    24    11    60 1   
    25    12    13 1   
    26    12    61 1   
    27    13    14 2   
    28    13    62 1   
    29    14    15 1   
    30    14    49 1   
    31    15    16 2   
    32    15    17 1   
    33    17    18 1   
    34    17    63 1   
    35    18    19 1   
    36    18    64 1   
    37    18    65 1   
    38    19    20 ar  
    39    19    47 ar  
    40    20    21 1   
    41    20    22 ar  
    42    21    66 1   
    43    21    67 1   
    44    21    68 1   
    45    22    23 1   
    46    22    24 ar  
    47    23    69 1   
    48    23    70 1   
    49    23    71 1   
    50    24    25 1   
    51    24    45 ar  
    52    25    26 1   
    53    25    72 1   
    54    25    73 1   
    55    26    27 1   
    56    26    74 1   
    57    27    28 1   
    58    27    29 2   
    59    29    30 1   
    60    29    43 1   
    61    30    31 2   
    62    30    75 1   
    63    31    32 1   
    64    31    76 1   
    65    32    33 2   
    66    32    77 1   
    67    33    34 1   
    68    33    43 1   
    69    34    35 2   
    70    34    36 1   
    71    36    37 1   
    72    36    78 1   
    73    37    38 1   
    74    37    79 1   
    75    37    80 1   
    76    38    39 ar  
    77    39    40 1   
    78    39    41 ar  
    79    40    81 1   
    80    40    82 1   
    81    40    83 1   
    82    41    42 1   
    83    42    84 1   
    84    42    85 1   
    85    42    86 1   
    86    43    44 1   
    87    44    87 1   
    88    44    88 1   
    89    44    89 1   
    90    45    46 1   
    91    45    47 ar  
    92    46    90 1   
    93    46    91 1   
    94    46    92 1   
    95    47    48 1   
    96    48    93 1   
    97    48    94 1   
    98    48    95 1   
    99    49    50 1   
   100    50    96 1   
   101    50    97 1   
   102    50    98 1   
@<TRIPOS>SUBSTRUCTURE
     1 ASB         1 TEMP              0 ****  ****    0 ROOT
