@<TRIPOS>MOLECULE
6
   93    99     1     0     0
SMALL
bcc


@<TRIPOS>ATOM
      1 C1           7.2030    -2.3420    -1.0950 c3         1 6        -0.087767
      2 C2           6.3540    -1.8500     0.1050 c3         1 6         0.040267
      3 C3           7.2990    -1.8810     1.3330 c3         1 6        -0.087767
      4 C4           5.1320    -2.8000     0.2290 ca         1 6        -0.053967
      5 C5           4.1580    -2.7980    -0.7900 ca         1 6        -0.135500
      6 C6           2.9580    -3.4980    -0.6500 ca         1 6        -0.094833
      7 C7           2.6910    -4.2410     0.5050 ca         1 6         0.090400
      8 C8           3.6770    -4.2990     1.4930 ca         1 6        -0.094833
      9 C9           4.8850    -3.5970     1.3580 ca         1 6        -0.135500
     10 N1           1.4170    -4.7810     0.7750 ne         1 6        -0.206733
     11 N2           0.8900    -5.3030    -0.2320 nf         1 6        -0.206733
     12 C10         -0.5130    -5.2910    -0.0930 ca         1 6         0.090400
     13 C11         -1.2620    -4.5940    -1.0420 ca         1 6        -0.094833
     14 C12         -2.6410    -4.4340    -0.8850 ca         1 6        -0.135500
     15 C13         -3.3180    -4.9730     0.2280 ca         1 6        -0.053967
     16 C14         -2.5680    -5.7410     1.1340 ca         1 6        -0.135500
     17 C15         -1.1830    -5.8990     0.9730 ca         1 6        -0.094833
     18 C16         -4.8140    -4.6210     0.4400 c3         1 6         0.040267
     19 C17         -5.6090    -5.2880    -0.7110 c3         1 6        -0.087767
     20 C18         -5.4090    -5.1890     1.7540 c3         1 6        -0.087767
     21 C19         -4.9710    -3.0780     0.4980 ca         1 6        -0.053967
     22 C20         -5.7950    -2.3510    -0.3760 ca         1 6        -0.135500
     23 C21         -5.7980    -0.9470    -0.3650 ca         1 6        -0.094833
     24 C22         -4.9770    -0.2330     0.5140 ca         1 6         0.090400
     25 C23         -4.2090    -0.9500     1.4330 ca         1 6        -0.094833
     26 C24         -4.2050    -2.3470     1.4270 ca         1 6        -0.135500
     27 N3          -4.8500     1.1700     0.5110 ne         1 6        -0.206733
     28 N4          -4.7030     1.6110    -0.6510 nf         1 6        -0.206733
     29 C25         -4.0570     2.8640    -0.6460 ca         1 6         0.090400
     30 C26         -4.3910     3.9140     0.2150 ca         1 6        -0.094833
     31 C27         -3.6350     5.0970     0.2380 ca         1 6        -0.135500
     32 C28         -2.5250     5.2620    -0.6070 ca         1 6        -0.053967
     33 C29         -2.2450     4.2250    -1.5190 ca         1 6        -0.135500
     34 C30         -2.9980     3.0490    -1.5360 ca         1 6        -0.094833
     35 C31         -1.5660     6.4790    -0.5310 c3         1 6         0.040267
     36 C32         -1.9120     7.4790     0.6020 c3         1 6        -0.087767
     37 C33         -1.7250     7.2670    -1.8570 c3         1 6        -0.087767
     38 C34         -0.1220     5.9740    -0.2720 ca         1 6        -0.053967
     39 C35          0.9490     6.2120    -1.1500 ca         1 6        -0.135500
     40 C36          2.1960     5.6040    -0.9470 ca         1 6        -0.094833
     41 C37          2.4050     4.7400     0.1330 ca         1 6         0.090400
     42 C38          1.3710     4.5620     1.0530 ca         1 6        -0.094833
     43 C39          0.1280     5.1660     0.8550 ca         1 6        -0.135500
     44 N5           3.5900     3.9990     0.3120 ne         1 6        -0.206733
     45 N6           3.7840     3.2670    -0.6840 nf         1 6        -0.206733
     46 C40          4.5600     2.1290    -0.3810 ca         1 6         0.090400
     47 C41          5.4520     1.6410    -1.3400 ca         1 6        -0.094833
     48 C42          6.0890     0.4010    -1.1750 ca         1 6        -0.135500
     49 C43          5.8370    -0.3940    -0.0460 ca         1 6        -0.053967
     50 C44          4.9860     0.1350     0.9440 ca         1 6        -0.135500
     51 C45          4.3530     1.3690     0.7750 ca         1 6        -0.094833
     52 H1           6.6550    -2.3070    -2.0430 hc         1 6         0.041811
     53 H2           8.1100    -1.7380    -1.2190 hc         1 6         0.041811
     54 H3           7.5210    -3.3820    -0.9500 hc         1 6         0.041811
     55 H4           7.7360    -2.8760     1.4780 hc         1 6         0.041811
     56 H5           8.1300    -1.1760     1.2060 hc         1 6         0.041811
     57 H6           6.7900    -1.6080     2.2640 hc         1 6         0.041811
     58 H7           4.2940    -2.1890    -1.6830 ha         1 6         0.138333
     59 H8           2.2020    -3.4090    -1.4260 ha         1 6         0.148000
     60 H9           3.4850    -4.8610     2.4040 ha         1 6         0.148000
     61 H10          5.5930    -3.6520     2.1790 ha         1 6         0.138333
     62 H11         -0.7610    -4.1230    -1.8830 ha         1 6         0.148000
     63 H12         -3.1740    -3.8310    -1.6170 ha         1 6         0.138333
     64 H13         -3.0280    -6.1980     2.0060 ha         1 6         0.138333
     65 H14         -0.6170    -6.4610     1.7100 ha         1 6         0.148000
     66 H15         -6.6890    -5.1330    -0.5960 hc         1 6         0.041811
     67 H16         -5.3260    -4.9020    -1.6970 hc         1 6         0.041811
     68 H17         -5.4380    -6.3720    -0.7300 hc         1 6         0.041811
     69 H18         -4.8770    -4.8350     2.6440 hc         1 6         0.041811
     70 H19         -6.4590    -4.8920     1.8710 hc         1 6         0.041811
     71 H20         -5.3790    -6.2850     1.7680 hc         1 6         0.041811
     72 H21         -6.4250    -2.8490    -1.1080 ha         1 6         0.138333
     73 H22         -6.4210    -0.4090    -1.0750 ha         1 6         0.148000
     74 H23         -3.5710    -0.4150     2.1320 ha         1 6         0.148000
     75 H24         -3.5500    -2.8600     2.1290 ha         1 6         0.138333
     76 H25         -5.2260     3.8010     0.9020 ha         1 6         0.148000
     77 H26         -3.9200     5.8620     0.9550 ha         1 6         0.138333
     78 H27         -1.3970     4.3010    -2.1970 ha         1 6         0.138333
     79 H28         -2.7270     2.2490    -2.2210 ha         1 6         0.148000
     80 H29         -2.9030     7.9260     0.4550 hc         1 6         0.041811
     81 H30         -1.9090     7.0090     1.5920 hc         1 6         0.041811
     82 H31         -1.1870     8.3010     0.6350 hc         1 6         0.041811
     83 H32         -1.4410     6.6740    -2.7340 hc         1 6         0.041811
     84 H33         -2.7670     7.5780    -2.0060 hc         1 6         0.041811
     85 H34         -1.1110     8.1750    -1.8600 hc         1 6         0.041811
     86 H35          0.8320     6.8380    -2.0300 ha         1 6         0.138333
     87 H36          2.9980     5.7680    -1.6630 ha         1 6         0.148000
     88 H37          1.5170     3.9020     1.9040 ha         1 6         0.148000
     89 H38         -0.6680     4.9490     1.5660 ha         1 6         0.138333
     90 H39          5.6170     2.2100    -2.2510 ha         1 6         0.148000
     91 H40          6.7390     0.0600    -1.9750 ha         1 6         0.138333
     92 H41          4.7480    -0.4440     1.8350 ha         1 6         0.138333
     93 H42          3.6460     1.7070     1.5280 ha         1 6         0.148000
@<TRIPOS>BOND
     1     1     2 1   
     2     1    52 1   
     3     1    53 1   
     4     1    54 1   
     5     2     3 1   
     6     2     4 1   
     7     2    49 1   
     8     3    55 1   
     9     3    56 1   
    10     3    57 1   
    11     4     5 ar  
    12     4     9 ar  
    13     5     6 ar  
    14     5    58 1   
    15     6     7 ar  
    16     6    59 1   
    17     7     8 ar  
    18     7    10 1   
    19     8     9 ar  
    20     8    60 1   
    21     9    61 1   
    22    10    11 2   
    23    11    12 1   
    24    12    13 ar  
    25    12    17 ar  
    26    13    14 ar  
    27    13    62 1   
    28    14    15 ar  
    29    14    63 1   
    30    15    16 ar  
    31    15    18 1   
    32    16    17 ar  
    33    16    64 1   
    34    17    65 1   
    35    18    19 1   
    36    18    20 1   
    37    18    21 1   
    38    19    66 1   
    39    19    67 1   
    40    19    68 1   
    41    20    69 1   
    42    20    70 1   
    43    20    71 1   
    44    21    22 ar  
    45    21    26 ar  
    46    22    23 ar  
    47    22    72 1   
    48    23    24 ar  
    49    23    73 1   
    50    24    25 ar  
    51    24    27 1   
    52    25    26 ar  
    53    25    74 1   
    54    26    75 1   
    55    27    28 2   
    56    28    29 1   
    57    29    30 ar  
    58    29    34 ar  
    59    30    31 ar  
    60    30    76 1   
    61    31    32 ar  
    62    31    77 1   
    63    32    33 ar  
    64    32    35 1   
    65    33    34 ar  
    66    33    78 1   
    67    34    79 1   
    68    35    36 1   
    69    35    37 1   
    70    35    38 1   
    71    36    80 1   
    72    36    81 1   
    73    36    82 1   
    74    37    83 1   
    75    37    84 1   
    76    37    85 1   
    77    38    39 ar  
    78    38    43 ar  
    79    39    40 ar  
    80    39    86 1   
    81    40    41 ar  
    82    40    87 1   
    83    41    42 ar  
    84    41    44 1   
    85    42    43 ar  
    86    42    88 1   
    87    43    89 1   
    88    44    45 2   
    89    45    46 1   
    90    46    47 ar  
    91    46    51 ar  
    92    47    48 ar  
    93    47    90 1   
    94    48    49 ar  
    95    48    91 1   
    96    49    50 ar  
    97    50    51 ar  
    98    50    92 1   
    99    51    93 1   
@<TRIPOS>SUBSTRUCTURE
     1 6           1 TEMP              0 ****  ****    0 ROOT
