@<TRIPOS>MOLECULE
171
   64    66     1     0     0
SMALL
bcc


@<TRIPOS>ATOM
      1 C           -0.9780    -4.1050    -0.4090 c3         0 171       0.116400
      2 C1          -2.1110    -3.7190     0.5430 c3         0 171       0.116400
      3 O           -3.3500    -3.7110    -0.1680 os         0 171      -0.423350
      4 C2          -4.1720    -2.7170     0.4470 c3         0 171       0.110900
      5 C3          -5.1170    -2.1200    -0.5980 c3         0 171       0.111400
      6 O1          -5.9910    -1.1780     0.0270 os         0 171      -0.337650
      7 C4          -5.3420     0.0160     0.0300 ca         0 171       0.088850
      8 C5          -5.0350     0.6420    -1.1700 ca         0 171      -0.142500
      9 C6          -4.3640     1.8500    -1.1660 ca         0 171      -0.142500
     10 C7          -4.0010     2.4380     0.0360 ca         0 171       0.088850
     11 O2          -3.3230     3.6190     0.0390 os         0 171      -0.337650
     12 C8          -1.9370     3.2840    -0.0620 c3         0 171       0.111400
     13 C9          -1.0990     4.5630    -0.1050 c3         0 171       0.110900
     14 O3           0.2110     4.2570    -0.5850 os         0 171      -0.423350
     15 C10          1.1260     5.0490     0.1750 c3         0 171       0.116400
     16 C11          2.1860     4.1420     0.8040 c3         0 171       0.116400
     17 O4           2.9560     3.5210    -0.2270 os         0 171      -0.423350
     18 C12          3.9280     2.7000     0.4220 c3         0 171       0.110900
     19 C13          4.8790     2.1100    -0.6210 c3         0 171       0.111400
     20 O5           5.8010     1.2260     0.0190 os         0 171      -0.337650
     21 C14          5.2400    -0.0120    -0.0010 ca         0 171       0.088850
     22 C15          4.9030    -0.6000    -1.2110 ca         0 171      -0.142500
     23 C16          4.3310    -1.8570    -1.2320 ca         0 171      -0.142500
     24 C17          4.0930    -2.5310    -0.0440 ca         0 171       0.088850
     25 O6           3.5260    -3.7670    -0.0660 os         0 171      -0.337650
     26 C18          2.1760    -3.6090     0.3730 c3         0 171       0.111400
     27 C19          1.2720    -4.5710    -0.4000 c3         0 171       0.110900
     28 O7           0.0540    -4.7700     0.3240 os         0 171      -0.423350
     29 C20          4.4340    -1.9450     1.1660 ca         0 171      -0.142500
     30 C21          5.0060    -0.6880     1.1870 ca         0 171      -0.142500
     31 C22         -4.3220     1.8200     1.2360 ca         0 171      -0.142500
     32 C23         -4.9900     0.6110     1.2320 ca         0 171      -0.142500
     33 H           -1.3630    -4.7720    -1.1800 h1         0 171       0.050825
     34 H1          -0.5720    -3.2070    -0.8740 h1         0 171       0.050825
     35 H2          -2.1640    -4.4420     1.3570 h1         0 171       0.050825
     36 H3          -1.9200    -2.7260     0.9510 h1         0 171       0.050825
     37 H4          -4.7560    -3.1710     1.2470 h1         0 171       0.051700
     38 H5          -3.5420    -1.9280     0.8590 h1         0 171       0.051700
     39 H6          -4.5340    -1.6170    -1.3700 h1         0 171       0.060575
     40 H7          -5.7070    -2.9170    -1.0510 h1         0 171       0.060575
     41 H8          -5.3200     0.1850    -2.1060 ha         0 171       0.145750
     42 H9          -4.1240     2.3360    -2.1000 ha         0 171       0.145750
     43 H10         -1.6440     2.6880     0.8030 h1         0 171       0.060575
     44 H11         -1.7680     2.7090    -0.9720 h1         0 171       0.060575
     45 H12         -1.5710     5.2840    -0.7720 h1         0 171       0.051700
     46 H13         -1.0290     4.9860     0.8970 h1         0 171       0.051700
     47 H14          1.6100     5.7740    -0.4800 h1         0 171       0.050825
     48 H15          0.5850     5.5750     0.9610 h1         0 171       0.050825
     49 H16          2.8430     4.7370     1.4390 h1         0 171       0.050825
     50 H17          1.6980     3.3750     1.4040 h1         0 171       0.050825
     51 H18          4.4960     3.3010     1.1330 h1         0 171       0.051700
     52 H19          3.4240     1.8910     0.9520 h1         0 171       0.051700
     53 H20          4.3050     1.5580    -1.3650 h1         0 171       0.060575
     54 H21          5.4270     2.9160    -1.1090 h1         0 171       0.060575
     55 H22          5.0890    -0.0760    -2.1370 ha         0 171       0.145750
     56 H23          4.0680    -2.3150    -2.1750 ha         0 171       0.145750
     57 H24          2.1120    -3.8280     1.4390 h1         0 171       0.060575
     58 H25          1.8530    -2.5840     0.1930 h1         0 171       0.060575
     59 H26          1.0450    -4.1490    -1.3790 h1         0 171       0.051700
     60 H27          1.7810    -5.5270    -0.5260 h1         0 171       0.051700
     61 H28          4.2520    -2.4710     2.0910 ha         0 171       0.145750
     62 H29          5.2720    -0.2310     2.1290 ha         0 171       0.145750
     63 H30         -4.0480     2.2840     2.1720 ha         0 171       0.145750
     64 H31         -5.2400     0.1300     2.1660 ha         0 171       0.145750
@<TRIPOS>BOND
     1     1     2 1   
     2     1    28 1   
     3     1    33 1   
     4     1    34 1   
     5     2     3 1   
     6     2    35 1   
     7     2    36 1   
     8     3     4 1   
     9     4     5 1   
    10     4    37 1   
    11     4    38 1   
    12     5     6 1   
    13     5    39 1   
    14     5    40 1   
    15     6     7 1   
    16     7     8 ar  
    17     7    32 ar  
    18     8     9 ar  
    19     8    41 1   
    20     9    10 ar  
    21     9    42 1   
    22    10    11 1   
    23    10    31 ar  
    24    11    12 1   
    25    12    13 1   
    26    12    43 1   
    27    12    44 1   
    28    13    14 1   
    29    13    45 1   
    30    13    46 1   
    31    14    15 1   
    32    15    16 1   
    33    15    47 1   
    34    15    48 1   
    35    16    17 1   
    36    16    49 1   
    37    16    50 1   
    38    17    18 1   
    39    18    19 1   
    40    18    51 1   
    41    18    52 1   
    42    19    20 1   
    43    19    53 1   
    44    19    54 1   
    45    20    21 1   
    46    21    22 ar  
    47    21    30 ar  
    48    22    23 ar  
    49    22    55 1   
    50    23    24 ar  
    51    23    56 1   
    52    24    25 1   
    53    24    29 ar  
    54    25    26 1   
    55    26    27 1   
    56    26    57 1   
    57    26    58 1   
    58    27    28 1   
    59    27    59 1   
    60    27    60 1   
    61    29    30 ar  
    62    29    61 1   
    63    30    62 1   
    64    31    32 ar  
    65    31    63 1   
    66    32    64 1   
@<TRIPOS>SUBSTRUCTURE
     1 171         1 TEMP              0 ****  ****    0 ROOT
