@<TRIPOS>MOLECULE
URE
   95   101     1     0     0
SMALL
bcc


@<TRIPOS>ATOM
      1 O            5.0710     6.2330     0.5590 oh         0 URE      -0.593100
      2 C            5.2470     5.1310    -0.1880 c          0 URE       0.613100
      3 O1           6.1540     5.0790    -0.9840 o          0 URE      -0.560500
      4 C1           4.3120     3.9600    -0.0320 c3         0 URE       0.076700
      5 C2           3.0210     4.2320    -0.8060 c3         0 URE      -0.038800
      6 S            1.6560     4.5470     0.3440 ss         0 URE      -0.175600
      7 S1           0.9560     6.3250    -0.4040 ss         0 URE      -0.063900
      8 C3          -0.7340     6.2340     0.0830 ca         0 URE      -0.076600
      9 C4          -1.2140     7.0790     1.0760 ca         0 URE       0.010500
     10 C5          -2.5520     7.0140     1.4630 ca         0 URE      -0.160600
     11 C6          -3.4060     6.0930     0.8530 ca         0 URE       0.016000
     12 C7          -2.9220     5.2500    -0.1390 ca         0 URE      -0.068100
     13 S2          -3.9940     4.0800    -0.9060 ss         0 URE      -0.105900
     14 S3          -4.8660     3.2430     0.7490 ss         0 URE      -0.100900
     15 C8          -5.5680     1.7950     0.0310 ca         0 URE      -0.059100
     16 C9          -6.4020     1.9030    -1.0750 ca         0 URE      -0.002000
     17 C10         -6.9540     0.7580    -1.6480 ca         0 URE      -0.150600
     18 C11         -6.6640    -0.4960    -1.1090 ca         0 URE      -0.002000
     19 C12         -5.8310    -0.6010    -0.0010 ca         0 URE      -0.059100
     20 S4          -5.4610    -2.1860     0.6740 ss         0 URE      -0.100900
     21 S5          -4.6210    -3.0910    -0.9620 ss         0 URE      -0.105900
     22 C13         -3.8870    -4.4990    -0.1980 ca         0 URE      -0.068100
     23 C14         -4.5880    -5.2080     0.7710 ca         0 URE       0.016000
     24 C15         -4.0060    -6.3170     1.3810 ca         0 URE      -0.160600
     25 C16         -2.7210    -6.7160     1.0130 ca         0 URE       0.010500
     26 C17         -2.0250    -6.0090     0.0390 ca         0 URE      -0.076600
     27 S6          -0.4080    -6.5300    -0.4280 ss         0 URE      -0.063900
     28 S7           0.6650    -4.8340    -0.0090 ss         0 URE      -0.175600
     29 C18          1.8020    -4.8190    -1.4220 c3         0 URE      -0.038800
     30 C19          3.2440    -5.0000    -0.9430 c3         0 URE       0.076700
     31 N            4.0280    -3.7960    -1.2890 n          0 URE      -0.570400
     32 C20          5.1000    -3.5150    -0.5030 c          0 URE       0.682200
     33 O2           5.5450    -4.3740     0.2340 o          0 URE      -0.574100
     34 C21          5.7280    -2.1940    -0.5310 ca         0 URE      -0.103600
     35 C22          5.6450    -1.3300    -1.6530 ca         0 URE      -0.008250
     36 C23          5.3590    -1.8160    -2.9370 ca         0 URE      -0.126250
     37 C24          5.3090    -0.9530    -3.9880 ca         0 URE      -0.113500
     38 C25          5.5080     0.4160    -3.8190 ca         0 URE      -0.113500
     39 C26          5.7590     0.9530    -2.5950 ca         0 URE      -0.126250
     40 C27          5.8490     0.1180    -1.4730 ca         0 URE      -0.008250
     41 C28          6.1200     0.6310    -0.1800 ca         0 URE      -0.103600
     42 C29          6.6110    -0.2690     0.8030 ca         0 URE      -0.008250
     43 C30          7.2460     0.1810     1.9670 ca         0 URE      -0.126250
     44 C31          7.7020    -0.7230     2.8760 ca         0 URE      -0.113500
     45 C32          7.5360    -2.0950     2.6930 ca         0 URE      -0.113500
     46 C33          6.9040    -2.5960     1.5970 ca         0 URE      -0.126250
     47 C34          6.4240    -1.7160     0.6160 ca         0 URE      -0.008250
     48 C35          5.7950     2.0170     0.1780 c          0 URE       0.682200
     49 O3           6.3050     2.5070     1.1670 o          0 URE      -0.574100
     50 N1           4.9520     2.7530    -0.5560 n          0 URE      -0.570400
     51 C36          3.2570    -5.1970     0.5510 c          0 URE       0.613100
     52 O4           2.9690    -6.4000     1.0720 oh         0 URE      -0.593100
     53 O5           3.5270    -4.2720     1.2800 o          0 URE      -0.560500
     54 C37         -2.6080    -4.9050    -0.5660 ca         0 URE      -0.006000
     55 C38         -4.7480    -7.0690     2.4150 c          0 URE       0.651700
     56 O6          -5.9880    -6.6820     2.7680 oh         0 URE      -0.604100
     57 O7          -4.2380    -8.0350     2.9450 o          0 URE      -0.543500
     58 C39         -5.2880     0.5440     0.5710 ca         0 URE       0.000000
     59 C40         -7.8440     0.8720    -2.8220 c          0 URE       0.671700
     60 O8          -8.3770    -0.2360    -3.3740 oh         0 URE      -0.603100
     61 O9          -8.0960     1.9640    -3.2890 o          0 URE      -0.574000
     62 C41         -1.5890     5.3260    -0.5270 ca         0 URE      -0.006000
     63 C42         -3.0650     7.9150     2.5160 c          0 URE       0.651700
     64 O10         -4.3580     7.8500     2.8880 oh         0 URE      -0.604100
     65 O11         -2.3200     8.7150     3.0460 o          0 URE      -0.543500
     66 H            5.6710     6.9850     0.4590 ho         0 URE       0.462500
     67 H1           4.0800     3.8180     1.0230 h1         0 URE       0.131700
     68 H2           3.1610     5.1020    -1.4470 h1         0 URE       0.100950
     69 H3           2.7800     3.3660    -1.4230 h1         0 URE       0.100950
     70 H4          -0.5500     7.7880     1.5490 ha         0 URE       0.177000
     71 H5          -4.4430     6.0360     1.1520 ha         0 URE       0.176500
     72 H6          -6.6230     2.8750    -1.4920 ha         0 URE       0.174000
     73 H7          -7.0860    -1.3850    -1.5530 ha         0 URE       0.174000
     74 H8          -5.5840    -4.8980     1.0510 ha         0 URE       0.176500
     75 H9          -2.2660    -7.5740     1.4860 ha         0 URE       0.177000
     76 H10          1.5430    -5.6290    -2.1030 h1         0 URE       0.100950
     77 H11          1.7130    -3.8670    -1.9470 h1         0 URE       0.100950
     78 H12          3.6830    -5.8720    -1.4290 h1         0 URE       0.131700
     79 H13          3.7890    -3.2330    -2.0420 hn         0 URE       0.330500
     80 H14          5.1790    -2.8690    -3.0910 ha         0 URE       0.153750
     81 H15          5.1110    -1.3390    -4.9780 ha         0 URE       0.141500
     82 H16          5.4620     1.0660    -4.6800 ha         0 URE       0.141500
     83 H17          5.8890     2.0190    -2.4870 ha         0 URE       0.153750
     84 H18          7.3730     1.2400     2.1420 ha         0 URE       0.153750
     85 H19          8.2060    -0.3680     3.7630 ha         0 URE       0.141500
     86 H20          7.9180    -2.7760     3.4390 ha         0 URE       0.141500
     87 H21          6.7740    -3.6620     1.4830 ha         0 URE       0.153750
     88 H22          4.7600     2.4760    -1.4650 hn         0 URE       0.330500
     89 H23          2.9770    -6.5260     2.0310 ho         0 URE       0.462500
     90 H24         -2.0680    -4.3590    -1.3250 ha         0 URE       0.174500
     91 H25         -6.4740    -7.1730     3.4450 ho         0 URE       0.452500
     92 H26         -4.6470     0.4620     1.4370 ha         0 URE       0.170000
     93 H27         -8.9590    -0.1610    -4.1420 ho         0 URE       0.451000
     94 H28         -1.2170     4.6760    -1.3060 ha         0 URE       0.174500
     95 H29         -4.6930     8.4400     3.5770 ho         0 URE       0.452500
@<TRIPOS>BOND
     1     1     2 1   
     2     1    66 1   
     3     2     3 2   
     4     2     4 1   
     5     4     5 1   
     6     4    50 1   
     7     4    67 1   
     8     5     6 1   
     9     5    68 1   
    10     5    69 1   
    11     6     7 1   
    12     7     8 1   
    13     8     9 ar  
    14     8    62 ar  
    15     9    10 ar  
    16     9    70 1   
    17    10    11 ar  
    18    10    63 1   
    19    11    12 ar  
    20    11    71 1   
    21    12    13 1   
    22    12    62 ar  
    23    13    14 1   
    24    14    15 1   
    25    15    16 ar  
    26    15    58 ar  
    27    16    17 ar  
    28    16    72 1   
    29    17    18 ar  
    30    17    59 1   
    31    18    19 ar  
    32    18    73 1   
    33    19    20 1   
    34    19    58 ar  
    35    20    21 1   
    36    21    22 1   
    37    22    23 ar  
    38    22    54 ar  
    39    23    24 ar  
    40    23    74 1   
    41    24    25 ar  
    42    24    55 1   
    43    25    26 ar  
    44    25    75 1   
    45    26    27 1   
    46    26    54 ar  
    47    27    28 1   
    48    28    29 1   
    49    29    30 1   
    50    29    76 1   
    51    29    77 1   
    52    30    31 1   
    53    30    51 1   
    54    30    78 1   
    55    31    32 1   
    56    31    79 1   
    57    32    33 2   
    58    32    34 1   
    59    34    35 ar  
    60    34    47 ar  
    61    35    36 ar  
    62    35    40 ar  
    63    36    37 ar  
    64    36    80 1   
    65    37    38 ar  
    66    37    81 1   
    67    38    39 ar  
    68    38    82 1   
    69    39    40 ar  
    70    39    83 1   
    71    40    41 ar  
    72    41    42 ar  
    73    41    48 1   
    74    42    43 ar  
    75    42    47 ar  
    76    43    44 ar  
    77    43    84 1   
    78    44    45 ar  
    79    44    85 1   
    80    45    46 ar  
    81    45    86 1   
    82    46    47 ar  
    83    46    87 1   
    84    48    49 2   
    85    48    50 1   
    86    50    88 1   
    87    51    52 1   
    88    51    53 2   
    89    52    89 1   
    90    54    90 1   
    91    55    56 1   
    92    55    57 2   
    93    56    91 1   
    94    58    92 1   
    95    59    60 1   
    96    59    61 2   
    97    60    93 1   
    98    62    94 1   
    99    63    64 1   
   100    63    65 2   
   101    64    95 1   
@<TRIPOS>SUBSTRUCTURE
     1 URE         1 TEMP              0 ****  ****    0 ROOT
