@<TRIPOS>MOLECULE
77
  120   126     1     0     0
SMALL
bcc


@<TRIPOS>ATOM
      1 C            4.6500    -1.1060     0.7640 c3         0 77        0.125800
      2 C1           3.1630    -0.8110     0.9730 c3         0 77        0.121800
      3 N            2.9060    -0.5820     2.4010 n3         0 77       -0.730600
      4 C2           3.2790    -1.8180     3.1010 c3         0 77        0.147800
      5 C3           2.6500    -3.0170     2.3880 c3         0 77        0.167800
      6 N1           1.2480    -3.1550     2.8060 n3         0 77       -0.815200
      7 C4           0.9690    -4.5950     2.8720 c3         0 77        0.114000
      8 C5          -0.4870    -4.8130     3.1940 ca         0 77        0.387100
      9 C6          -0.8670    -5.9400     3.8990 ca         0 77       -0.237800
     10 C7          -2.2090    -6.1340     4.1910 ca         0 77       -0.096000
     11 C8          -3.1210    -5.1840     3.7600 ca         0 77       -0.237800
     12 C9          -2.6670    -4.0820     3.0590 ca         0 77        0.387100
     13 C10         -3.6530    -3.0460     2.5850 c3         0 77        0.114000
     14 N2          -3.0200    -1.7210     2.5950 n3         0 77       -0.815200
     15 C11         -3.9860    -0.7890     1.9980 c3         0 77        0.167800
     16 C12         -3.9080     0.5590     2.7170 c3         0 77        0.147800
     17 N3          -2.9270     1.4170     2.0400 n3         0 77       -0.730600
     18 C13         -3.1230     1.2260     0.5970 c3         0 77        0.121800
     19 C14         -4.5910     1.4750     0.2440 c3         0 77        0.125800
     20 N4          -4.8110     1.1750    -1.1770 n3         0 77       -0.815200
     21 C15         -6.2000     1.5440    -1.4760 c3         0 77        0.201100
     22 C16         -6.5320     1.1470    -2.8910 ca         0 77       -0.111300
     23 C17         -6.8400    -0.1900    -3.1950 ca         0 77       -0.025000
     24 C18         -6.8470    -1.1820    -2.2000 ca         0 77       -0.126000
     25 C19         -7.1500    -2.4670    -2.5320 ca         0 77       -0.126000
     26 C20         -7.4540    -2.8160    -3.8460 ca         0 77       -0.128000
     27 C21         -7.4570    -1.8820    -4.8370 ca         0 77       -0.117000
     28 C22         -7.1490    -0.5450    -4.5320 ca         0 77       -0.038000
     29 C23         -7.1420     0.4460    -5.5280 ca         0 77       -0.115000
     30 C24         -6.8400     1.7320    -5.1960 ca         0 77       -0.126000
     31 C25         -6.5420     2.0820    -3.8810 ca         0 77       -0.119000
     32 C26         -3.3050     2.8060     2.3370 c3         0 77        0.147800
     33 C27         -2.6900     3.7350     1.2880 c3         0 77        0.167800
     34 N5          -1.2720     3.9560     1.6010 n3         0 77       -0.815200
     35 C28         -1.0720     5.4100     1.6420 c3         0 77        0.114000
     36 C29          0.3990     5.7170     1.7490 ca         0 77        0.387100
     37 N6           1.2830     4.7510     1.5890 nb         0 77       -0.672000
     38 C30          2.5790     4.9760     1.6740 ca         0 77        0.387100
     39 C31          3.5500     3.8400     1.4790 c3         0 77        0.114000
     40 N7           2.9920     2.6090     2.0540 n3         0 77       -0.815200
     41 C32          3.9540     1.5370     1.7630 c3         0 77        0.167800
     42 C33          3.8510     0.4530     2.8400 c3         0 77        0.147800
     43 C34          3.0610     6.2440     1.9390 ca         0 77       -0.237800
     44 C35          2.1620     7.2860     2.1130 ca         0 77       -0.096000
     45 C36          0.8070     7.0110     2.0150 ca         0 77       -0.237800
     46 N8          -1.3830    -3.9290     2.8010 nb         0 77       -0.672000
     47 N9           4.8890    -1.4430    -0.6460 n3         0 77       -0.815200
     48 C37          6.3020    -1.8270    -0.7550 c3         0 77        0.201100
     49 C38          6.6480    -2.0670    -2.2020 ca         0 77       -0.111300
     50 C39          6.8940    -0.9810    -3.0590 ca         0 77       -0.025000
     51 C40          6.8260     0.3450    -2.5960 ca         0 77       -0.126000
     52 C41          7.0720     1.3710    -3.4540 ca         0 77       -0.126000
     53 C42          7.3890     1.1300    -4.7900 ca         0 77       -0.128000
     54 C43          7.4630    -0.1400    -5.2740 ca         0 77       -0.117000
     55 C44          7.2170    -1.2260    -4.4170 ca         0 77       -0.038000
     56 C45          7.2850    -2.5510    -4.8800 ca         0 77       -0.115000
     57 C46          7.0400    -3.5780    -4.0210 ca         0 77       -0.126000
     58 C47          6.7280    -3.3370    -2.6850 ca         0 77       -0.119000
     59 H            5.2360    -0.2270     1.0320 h1         0 77        0.048200
     60 H1           4.9460    -1.9460     1.3930 h1         0 77        0.048200
     61 H2           2.8860     0.0780     0.4070 h1         0 77        0.064700
     62 H3           2.5720    -1.6600     0.6290 h1         0 77        0.064700
     63 H4           4.3640    -1.9230     3.1000 h1         0 77        0.033950
     64 H5           2.9190    -1.7770     4.1290 h1         0 77        0.033950
     65 H6           2.6940    -2.8630     1.3100 h1         0 77        0.041450
     66 H7           3.1970    -3.9230     2.6480 h1         0 77        0.041450
     67 H8           1.1910    -2.8040     3.7500 hn         0 77        0.384800
     68 H9           1.2010    -5.0550     1.9120 h1         0 77        0.054700
     69 H10          1.5840    -5.0480     3.6490 h1         0 77        0.054700
     70 H11         -0.1290    -6.6600     4.2190 ha         0 77        0.148500
     71 H12         -2.5350    -7.0040     4.7400 ha         0 77        0.137000
     72 H13         -4.1740    -5.3030     3.9690 ha         0 77        0.148500
     73 H14         -3.9740    -3.2870     1.5720 h1         0 77        0.054700
     74 H15         -4.5190    -3.0390     3.2470 h1         0 77        0.054700
     75 H16         -2.9200    -1.4540     3.5630 hn         0 77        0.384800
     76 H17         -3.7530    -0.6510     0.9420 h1         0 77        0.041450
     77 H18         -4.9920    -1.1960     2.0970 h1         0 77        0.041450
     78 H19         -4.8860     1.0390     2.6980 h1         0 77        0.033950
     79 H20         -3.6000     0.4010     3.7510 h1         0 77        0.033950
     80 H21         -2.4930     1.9260     0.0490 h1         0 77        0.064700
     81 H22         -2.8520     0.2050     0.3260 h1         0 77        0.064700
     82 H23         -5.2250     0.8320     0.8540 h1         0 77        0.048200
     83 H24         -4.8380     2.5190     0.4380 h1         0 77        0.048200
     84 H25         -4.2230     1.8060    -1.7010 hn         0 77        0.367800
     85 H26         -6.8700     1.0290    -0.7870 h1         0 77        0.056200
     86 H27         -6.3220     2.6220    -1.3640 h1         0 77        0.056200
     87 H28         -6.6130    -0.9270    -1.1770 ha         0 77        0.139000
     88 H29         -7.1550    -3.2270    -1.7650 ha         0 77        0.132000
     89 H30         -7.6900    -3.8430    -4.0830 ha         0 77        0.132000
     90 H31         -7.6940    -2.1680    -5.8510 ha         0 77        0.132000
     91 H32         -7.3750     0.1900    -6.5510 ha         0 77        0.133000
     92 H33         -6.8350     2.4920    -5.9630 ha         0 77        0.136000
     93 H34         -6.3050     3.1090    -3.6440 ha         0 77        0.132000
     94 H35         -4.3900     2.9000     2.3140 h1         0 77        0.033950
     95 H36         -2.9360     3.0790     3.3260 h1         0 77        0.033950
     96 H37         -2.7780     3.2790     0.3020 h1         0 77        0.041450
     97 H38         -3.2170     4.6900     1.2960 h1         0 77        0.041450
     98 H39         -1.1260     3.6170     2.5400 hn         0 77        0.384800
     99 H40         -1.4700     5.8570     0.7300 h1         0 77        0.054700
    100 H41         -1.5930     5.8240     2.5050 h1         0 77        0.054700
    101 H42          3.7280     3.6940     0.4140 h1         0 77        0.054700
    102 H43          4.4910     4.0780     1.9750 h1         0 77        0.054700
    103 H44          2.9890     2.7320     3.0560 hn         0 77        0.384800
    104 H45          3.7310     1.1040     0.7880 h1         0 77        0.041450
    105 H46          4.9640     1.9470     1.7560 h1         0 77        0.041450
    106 H47          3.4980     0.8980     3.7700 h1         0 77        0.033950
    107 H48          4.8320     0.0060     3.0000 h1         0 77        0.033950
    108 H49          4.1240     6.4220     2.0090 ha         0 77        0.148500
    109 H50          2.5100     8.2870     2.3200 ha         0 77        0.137000
    110 H51          0.0790     7.7980     2.1440 ha         0 77        0.148500
    111 H52          4.3470    -2.2710    -0.8420 hn         0 77        0.367800
    112 H53          6.9280    -1.0260    -0.3600 h1         0 77        0.056200
    113 H54          6.4760    -2.7390    -0.1840 h1         0 77        0.056200
    114 H55          6.5810     0.5470    -1.5630 ha         0 77        0.139000
    115 H56          7.0190     2.3890    -3.0960 ha         0 77        0.132000
    116 H57          7.5790     1.9630    -5.4510 ha         0 77        0.132000
    117 H58          7.7100    -0.3120    -6.3110 ha         0 77        0.132000
    118 H59          7.5290    -2.7530    -5.9120 ha         0 77        0.133000
    119 H60          7.0930    -4.5960    -4.3800 ha         0 77        0.136000
    120 H61          6.5390    -4.1700    -2.0240 ha         0 77        0.132000
@<TRIPOS>BOND
     1     1     2 1   
     2     1    47 1   
     3     1    59 1   
     4     1    60 1   
     5     2     3 1   
     6     2    61 1   
     7     2    62 1   
     8     3     4 1   
     9     3    42 1   
    10     4     5 1   
    11     4    63 1   
    12     4    64 1   
    13     5     6 1   
    14     5    65 1   
    15     5    66 1   
    16     6     7 1   
    17     6    67 1   
    18     7     8 1   
    19     7    68 1   
    20     7    69 1   
    21     8     9 ar  
    22     8    46 ar  
    23     9    10 ar  
    24     9    70 1   
    25    10    11 ar  
    26    10    71 1   
    27    11    12 ar  
    28    11    72 1   
    29    12    13 1   
    30    12    46 ar  
    31    13    14 1   
    32    13    73 1   
    33    13    74 1   
    34    14    15 1   
    35    14    75 1   
    36    15    16 1   
    37    15    76 1   
    38    15    77 1   
    39    16    17 1   
    40    16    78 1   
    41    16    79 1   
    42    17    18 1   
    43    17    32 1   
    44    18    19 1   
    45    18    80 1   
    46    18    81 1   
    47    19    20 1   
    48    19    82 1   
    49    19    83 1   
    50    20    21 1   
    51    20    84 1   
    52    21    22 1   
    53    21    85 1   
    54    21    86 1   
    55    22    23 ar  
    56    22    31 ar  
    57    23    24 ar  
    58    23    28 ar  
    59    24    25 ar  
    60    24    87 1   
    61    25    26 ar  
    62    25    88 1   
    63    26    27 ar  
    64    26    89 1   
    65    27    28 ar  
    66    27    90 1   
    67    28    29 ar  
    68    29    30 ar  
    69    29    91 1   
    70    30    31 ar  
    71    30    92 1   
    72    31    93 1   
    73    32    33 1   
    74    32    94 1   
    75    32    95 1   
    76    33    34 1   
    77    33    96 1   
    78    33    97 1   
    79    34    35 1   
    80    34    98 1   
    81    35    36 1   
    82    35    99 1   
    83    35   100 1   
    84    36    37 ar  
    85    36    45 ar  
    86    37    38 ar  
    87    38    39 1   
    88    38    43 ar  
    89    39    40 1   
    90    39   101 1   
    91    39   102 1   
    92    40    41 1   
    93    40   103 1   
    94    41    42 1   
    95    41   104 1   
    96    41   105 1   
    97    42   106 1   
    98    42   107 1   
    99    43    44 ar  
   100    43   108 1   
   101    44    45 ar  
   102    44   109 1   
   103    45   110 1   
   104    47    48 1   
   105    47   111 1   
   106    48    49 1   
   107    48   112 1   
   108    48   113 1   
   109    49    50 ar  
   110    49    58 ar  
   111    50    51 ar  
   112    50    55 ar  
   113    51    52 ar  
   114    51   114 1   
   115    52    53 ar  
   116    52   115 1   
   117    53    54 ar  
   118    53   116 1   
   119    54    55 ar  
   120    54   117 1   
   121    55    56 ar  
   122    56    57 ar  
   123    56   118 1   
   124    57    58 ar  
   125    57   119 1   
   126    58   120 1   
@<TRIPOS>SUBSTRUCTURE
     1 77          1 TEMP              0 ****  ****    0 ROOT
