@<TRIPOS>MOLECULE
167
  133   138     1     0     0
SMALL
bcc


@<TRIPOS>ATOM
      1 C            3.6770    -3.6230     1.8930 c3         0 167      -0.087767
      2 C1           2.1970    -3.9860     2.0240 c3         0 167      -0.010200
      3 C2           1.7300    -4.6900     0.7480 c3         0 167      -0.087767
      4 C3           2.0040    -4.9190     3.2210 c3         0 167      -0.087767
      5 C4           1.3870    -2.7300     2.2290 ca         0 167      -0.058300
      6 C5           2.0250    -1.5130     2.3640 ca         0 167      -0.122250
      7 C6           1.2880    -0.3570     2.5590 ca         0 167      -0.051550
      8 C7          -0.0980    -0.4250     2.5960 ca         0 167       0.093100
      9 O           -0.8300     0.7100     2.7600 os         0 167      -0.129700
     10 C8          -0.9300     0.9220     4.0950 c1         0 167      -0.030400
     11 C9          -1.0170     1.1060     5.2510 c1         0 167      -0.197000
     12 C10         -0.7400    -1.6490     2.4810 ca         0 167      -0.051550
     13 C11         -2.2280    -1.7720     2.5850 c3         0 167       0.017200
     14 C12         -3.0130    -1.3180     1.3950 ca         0 167      -0.083050
     15 C13         -4.3590    -1.0240     1.6140 ca         0 167      -0.122000
     16 C14         -5.1730    -0.5930     0.5900 ca         0 167      -0.068800
     17 C15         -4.6490    -0.4250    -0.6800 ca         0 167      -0.122000
     18 C16         -3.3180    -0.7030    -0.9070 ca         0 167      -0.083050
     19 C17         -2.5120    -1.1930     0.1160 ca         0 167       0.116600
     20 O1          -1.2450    -1.5700    -0.1990 os         0 167      -0.322900
     21 C18         -1.3320    -2.9280    -0.6540 c3         0 167       0.107400
     22 C19         -0.1900    -3.1910    -1.6360 c3         0 167       0.103900
     23 O2          -0.2240    -4.5410    -2.1000 os         0 167      -0.419100
     24 C20          1.1360    -4.9470    -2.2830 c3         0 167       0.096400
     25 C21          1.9020    -3.8990    -3.0920 c3         0 167       0.092900
     26 O3           3.3020    -4.1510    -3.0350 os         0 167      -0.414600
     27 C22          3.8250    -3.7420    -1.7800 c3         0 167       0.092900
     28 C23          4.1430    -2.2440    -1.7650 c3         0 167       0.096400
     29 O4           4.2270    -1.8020    -0.4100 os         0 167      -0.419100
     30 C24          3.5380    -0.5570    -0.2870 c3         0 167       0.103900
     31 C25          2.0510    -0.7540    -0.5600 c3         0 167       0.107400
     32 O5           1.2420     0.2510     0.0370 os         0 167      -0.322900
     33 C26          1.9710     1.3670     0.2630 ca         0 167       0.116600
     34 C27          2.2660     2.2250    -0.7920 ca         0 167      -0.083050
     35 C28          1.7100     1.9570    -2.1760 c3         0 167       0.017200
     36 C29          0.2080     1.9880    -2.0790 ca         0 167      -0.051550
     37 C30         -0.5340     0.8420    -2.3260 ca         0 167       0.093100
     38 O6           0.0760    -0.2930    -2.7520 os         0 167      -0.129700
     39 C31          0.0030    -0.2920    -4.1050 c1         0 167      -0.030400
     40 C32         -0.0610    -0.2920    -5.2770 c1         0 167      -0.197000
     41 C33         -1.9070     0.8520    -2.1280 ca         0 167      -0.051550
     42 C34         -2.7130    -0.4180    -2.2630 c3         0 167       0.017200
     43 C35         -2.5450     2.0320    -1.7970 ca         0 167      -0.122250
     44 C36         -1.8120     3.1890    -1.6200 ca         0 167      -0.058300
     45 C37         -0.4360     3.1660    -1.7520 ca         0 167      -0.122250
     46 C38         -2.5130     4.4810    -1.2810 c3         0 167      -0.010200
     47 C39         -3.2720     4.3180     0.0380 c3         0 167      -0.087767
     48 C40         -1.4800     5.6000    -1.1400 c3         0 167      -0.087767
     49 C41         -3.4990     4.8340    -2.3960 c3         0 167      -0.087767
     50 C42          3.0560     3.3390    -0.5980 ca         0 167      -0.122000
     51 C43          3.5230     3.6350     0.6680 ca         0 167      -0.068800
     52 C44          3.1760     2.8260     1.7280 ca         0 167      -0.122000
     53 C45          2.3820     1.6980     1.5440 ca         0 167      -0.083050
     54 C46          2.0040     0.9380     2.7780 c3         0 167       0.017200
     55 C47          4.4050     4.8350     0.8890 c3         0 167      -0.007700
     56 C48          3.6580     6.1020     0.4680 c3         0 167      -0.086100
     57 C49          4.7760     4.9290     2.3710 c3         0 167      -0.086100
     58 C50          5.6780     4.6920     0.0530 c3         0 167      -0.086100
     59 C51         -6.6270    -0.3050     0.8480 c3         0 167      -0.007700
     60 C52         -6.7500     0.7960     1.9030 c3         0 167      -0.086100
     61 C53         -7.2950     0.1550    -0.4500 c3         0 167      -0.086100
     62 C54         -7.3160    -1.5740     1.3530 c3         0 167      -0.086100
     63 C55          0.0110    -2.7990     2.2900 ca         0 167      -0.122250
     64 H            3.8150    -2.9580     1.0410 hc         0 167       0.037978
     65 H1           4.0100    -3.1210     2.8020 hc         0 167       0.037978
     66 H2           4.2620    -4.5300     1.7450 hc         0 167       0.037978
     67 H3           2.4020    -5.5180     0.5230 hc         0 167       0.037978
     68 H4           0.7190    -5.0720     0.8920 hc         0 167       0.037978
     69 H5           1.7360    -3.9820    -0.0810 hc         0 167       0.037978
     70 H6           2.3360    -4.4170     4.1300 hc         0 167       0.037978
     71 H7           0.9490    -5.1780     3.3130 hc         0 167       0.037978
     72 H8           2.5890    -5.8270     3.0720 hc         0 167       0.037978
     73 H9           3.1030    -1.4600     2.3210 ha         0 167       0.138250
     74 H10         -1.0950     1.2700     6.2850 ha         0 167       0.180000
     75 H11         -2.4740    -2.8220     2.7780 hc         0 167       0.060575
     76 H12         -2.5610    -1.1970     3.4560 hc         0 167       0.060575
     77 H13         -4.7690    -1.1390     2.6080 ha         0 167       0.133000
     78 H14         -5.2800    -0.0820    -1.4870 ha         0 167       0.133000
     79 H15         -1.2470    -3.6010     0.1980 h1         0 167       0.053200
     80 H16         -2.2870    -3.0850    -1.1530 h1         0 167       0.053200
     81 H17         -0.2890    -2.5210    -2.4910 h1         0 167       0.056950
     82 H18          0.7630    -3.0080    -1.1350 h1         0 167       0.056950
     83 H19          1.5990    -5.0940    -1.3130 h1         0 167       0.055200
     84 H20          1.1460    -5.8930    -2.8280 h1         0 167       0.055200
     85 H21          1.5780    -3.9680    -4.1410 h1         0 167       0.058450
     86 H22          1.6860    -2.8970    -2.7330 h1         0 167       0.058450
     87 H23          3.1230    -3.9600    -0.9800 h1         0 167       0.058450
     88 H24          4.7520    -4.2950    -1.5910 h1         0 167       0.058450
     89 H25          5.1030    -2.0780    -2.2550 h1         0 167       0.055200
     90 H26          3.3740    -1.6950    -2.2970 h1         0 167       0.055200
     91 H27          3.6780    -0.1810     0.7270 h1         0 167       0.056950
     92 H28          3.9500     0.1590    -0.9990 h1         0 167       0.056950
     93 H29          1.8910    -0.7470    -1.6410 h1         0 167       0.053200
     94 H30          1.7410    -1.7300    -0.1770 h1         0 167       0.053200
     95 H31          2.0500     2.7340    -2.8600 hc         0 167       0.060575
     96 H32          2.0490     0.9850    -2.5250 hc         0 167       0.060575
     97 H33         -0.1180    -0.2920    -6.3260 ha         0 167       0.180000
     98 H34         -2.0750    -1.2430    -2.5620 hc         0 167       0.060575
     99 H35         -3.5080    -0.2740    -2.9940 hc         0 167       0.060575
    100 H36         -3.6190     2.0490    -1.6780 ha         0 167       0.138250
    101 H37          0.1380     4.0680    -1.6000 ha         0 167       0.138250
    102 H38         -2.5700     4.0660     0.8330 hc         0 167       0.037978
    103 H39         -3.7790     5.2510     0.2830 hc         0 167       0.037978
    104 H40         -4.0080     3.5200    -0.0620 hc         0 167       0.037978
    105 H41         -0.9390     5.7160    -2.0790 hc         0 167       0.037978
    106 H42         -1.9870     6.5330    -0.8940 hc         0 167       0.037978
    107 H43         -0.7770     5.3480    -0.3450 hc         0 167       0.037978
    108 H44         -4.2350     4.0360    -2.4960 hc         0 167       0.037978
    109 H45         -4.0060     5.7670    -2.1510 hc         0 167       0.037978
    110 H46         -2.9580     4.9500    -3.3350 hc         0 167       0.037978
    111 H47          3.3100     3.9800    -1.4290 ha         0 167       0.133000
    112 H48          3.5240     3.0670     2.7220 ha         0 167       0.133000
    113 H49          1.3800     1.5830     3.4020 hc         0 167       0.060575
    114 H50          2.9210     0.7300     3.3400 hc         0 167       0.060575
    115 H51          2.7510     6.2040     1.0640 hc         0 167       0.036756
    116 H52          4.2970     6.9700     0.6280 hc         0 167       0.036756
    117 H53          3.3940     6.0340    -0.5870 hc         0 167       0.036756
    118 H54          5.3080     4.0270     2.6700 hc         0 167       0.036756
    119 H55          5.4140     5.7980     2.5300 hc         0 167       0.036756
    120 H56          3.8680     5.0310     2.9660 hc         0 167       0.036756
    121 H57          5.4140     4.6240    -1.0020 hc         0 167       0.036756
    122 H58          6.3170     5.5600     0.2130 hc         0 167       0.036756
    123 H59          6.2110     3.7890     0.3530 hc         0 167       0.036756
    124 H60         -6.2600     1.7000     1.5430 hc         0 167       0.036756
    125 H61         -7.8040     1.0040     2.0900 hc         0 167       0.036756
    126 H62         -6.2750     0.4680     2.8280 hc         0 167       0.036756
    127 H63         -7.2070    -0.6290    -1.2010 hc         0 167       0.036756
    128 H64         -8.3480     0.3630    -0.2620 hc         0 167       0.036756
    129 H65         -6.8040     1.0600    -0.8090 hc         0 167       0.036756
    130 H66         -6.8410    -1.9030     2.2780 hc         0 167       0.036756
    131 H67         -8.3700    -1.3660     1.5400 hc         0 167       0.036756
    132 H68         -7.2290    -2.3590     0.6010 hc         0 167       0.036756
    133 H69         -0.4860    -3.7520     2.1940 ha         0 167       0.138250
@<TRIPOS>BOND
     1     1     2 1   
     2     1    64 1   
     3     1    65 1   
     4     1    66 1   
     5     2     3 1   
     6     2     4 1   
     7     2     5 1   
     8     3    67 1   
     9     3    68 1   
    10     3    69 1   
    11     4    70 1   
    12     4    71 1   
    13     4    72 1   
    14     5     6 ar  
    15     5    63 ar  
    16     6     7 ar  
    17     6    73 1   
    18     7     8 ar  
    19     7    54 1   
    20     8     9 1   
    21     8    12 ar  
    22     9    10 1   
    23    10    11 3   
    24    11    74 1   
    25    12    13 1   
    26    12    63 ar  
    27    13    14 1   
    28    13    75 1   
    29    13    76 1   
    30    14    15 ar  
    31    14    19 ar  
    32    15    16 ar  
    33    15    77 1   
    34    16    17 ar  
    35    16    59 1   
    36    17    18 ar  
    37    17    78 1   
    38    18    19 ar  
    39    18    42 1   
    40    19    20 1   
    41    20    21 1   
    42    21    22 1   
    43    21    79 1   
    44    21    80 1   
    45    22    23 1   
    46    22    81 1   
    47    22    82 1   
    48    23    24 1   
    49    24    25 1   
    50    24    83 1   
    51    24    84 1   
    52    25    26 1   
    53    25    85 1   
    54    25    86 1   
    55    26    27 1   
    56    27    28 1   
    57    27    87 1   
    58    27    88 1   
    59    28    29 1   
    60    28    89 1   
    61    28    90 1   
    62    29    30 1   
    63    30    31 1   
    64    30    91 1   
    65    30    92 1   
    66    31    32 1   
    67    31    93 1   
    68    31    94 1   
    69    32    33 1   
    70    33    34 ar  
    71    33    53 ar  
    72    34    35 1   
    73    34    50 ar  
    74    35    36 1   
    75    35    95 1   
    76    35    96 1   
    77    36    37 ar  
    78    36    45 ar  
    79    37    38 1   
    80    37    41 ar  
    81    38    39 1   
    82    39    40 3   
    83    40    97 1   
    84    41    42 1   
    85    41    43 ar  
    86    42    98 1   
    87    42    99 1   
    88    43    44 ar  
    89    43   100 1   
    90    44    45 ar  
    91    44    46 1   
    92    45   101 1   
    93    46    47 1   
    94    46    48 1   
    95    46    49 1   
    96    47   102 1   
    97    47   103 1   
    98    47   104 1   
    99    48   105 1   
   100    48   106 1   
   101    48   107 1   
   102    49   108 1   
   103    49   109 1   
   104    49   110 1   
   105    50    51 ar  
   106    50   111 1   
   107    51    52 ar  
   108    51    55 1   
   109    52    53 ar  
   110    52   112 1   
   111    53    54 1   
   112    54   113 1   
   113    54   114 1   
   114    55    56 1   
   115    55    57 1   
   116    55    58 1   
   117    56   115 1   
   118    56   116 1   
   119    56   117 1   
   120    57   118 1   
   121    57   119 1   
   122    57   120 1   
   123    58   121 1   
   124    58   122 1   
   125    58   123 1   
   126    59    60 1   
   127    59    61 1   
   128    59    62 1   
   129    60   124 1   
   130    60   125 1   
   131    60   126 1   
   132    61   127 1   
   133    61   128 1   
   134    61   129 1   
   135    62   130 1   
   136    62   131 1   
   137    62   132 1   
   138    63   133 1   
@<TRIPOS>SUBSTRUCTURE
     1 167         1 TEMP              0 ****  ****    0 ROOT
