@<TRIPOS>MOLECULE
79
   70    74     1     0     0
SMALL
bcc


@<TRIPOS>ATOM
      1 C           -6.1680    -0.1790     0.3840 c3         0 79       -0.074900
      2 C1          -5.9340    -1.5600    -0.2320 c3         0 79       -0.074900
      3 C2          -4.4820    -1.6680    -0.7070 c3         0 79       -0.114900
      4 C3          -3.5450    -1.2020     0.4080 c3         0 79        0.191250
      5 H           -3.7990    -1.7370     1.3290 h1         0 79        0.058450
      6 N           -2.1560    -1.5150     0.0490 n3         0 79       -0.825450
      7 C4          -2.0580    -2.9800     0.0890 c3         0 79        0.127750
      8 C5          -0.6410    -3.4470    -0.0940 ca         0 79        0.404100
      9 C6          -0.4140    -4.6550    -0.7350 ca         0 79       -0.246800
     10 C7           0.8860    -5.1030    -0.8950 ca         0 79       -0.091500
     11 C8           1.9170    -4.3210    -0.4020 ca         0 79       -0.246800
     12 C9           1.6180    -3.1240     0.2220 ca         0 79        0.404100
     13 C10          2.7420    -2.2810     0.7700 c3         0 79        0.127750
     14 N1           2.8810    -1.0420    -0.0040 n3         0 79       -0.825450
     15 C11          3.5160    -0.0620     0.8880 c3         0 79        0.191250
     16 C12          4.9290    -0.5240     1.2460 c3         0 79       -0.114900
     17 C13          5.7810    -0.6210    -0.0180 c3         0 79       -0.074900
     18 C14          5.8530     0.7560    -0.6870 c3         0 79       -0.074900
     19 C15          4.4400     1.2110    -1.0550 c3         0 79       -0.114900
     20 C16          3.5830     1.3060     0.2070 c3         0 79        0.191250
     21 H1           4.0290     2.0270     0.8960 h1         0 79        0.058450
     22 N2           2.2310     1.7500    -0.1500 n3         0 79       -0.825450
     23 C17          2.0900     3.1340     0.3230 c3         0 79        0.127750
     24 C18          0.6940     3.6250     0.0440 ca         0 79        0.404100
     25 N3          -0.3410     2.8970     0.4150 nb         0 79       -0.656500
     26 C19         -1.5810     3.2820     0.1860 ca         0 79        0.404100
     27 C20         -2.7320     2.4210     0.6350 c3         0 79        0.127750
     28 N4          -2.6020     1.0600     0.0940 n3         0 79       -0.825450
     29 C21         -3.7310     0.2970     0.6410 c3         0 79        0.191250
     30 C22         -5.0310     0.7600    -0.0250 c3         0 79       -0.114900
     31 C23         -1.8410     4.4770    -0.4580 ca         0 79       -0.246800
     32 C24         -0.7790     5.2750    -0.8590 ca         0 79       -0.091500
     33 C25          0.5100     4.8350    -0.6000 ca         0 79       -0.246800
     34 N5           0.3680    -2.7260     0.3520 nb         0 79       -0.656500
     35 H2          -7.1170     0.2220     0.0270 hc         0 79        0.038325
     36 H3          -6.1950    -0.2660     1.4700 hc         0 79        0.038325
     37 H4          -6.1300    -2.3290     0.5140 hc         0 79        0.038325
     38 H5          -6.6050    -1.6970    -1.0810 hc         0 79        0.038325
     39 H6          -4.2590    -2.7040    -0.9600 hc         0 79        0.045325
     40 H7          -4.3400    -1.0400    -1.5870 hc         0 79        0.045325
     41 H8          -2.0370    -1.2420    -0.9150 hn         0 79        0.388050
     42 H9          -2.4270    -3.3350     1.0520 h1         0 79        0.044700
     43 H10         -2.6760    -3.4000    -0.7040 h1         0 79        0.044700
     44 H11         -1.2430    -5.2410    -1.1050 ha         0 79        0.141500
     45 H12          1.0910    -6.0400    -1.3920 ha         0 79        0.136000
     46 H13          2.9430    -4.6420    -0.5040 ha         0 79        0.141500
     47 H14          2.5310    -2.0340     1.8100 h1         0 79        0.044700
     48 H15          3.6730    -2.8450     0.7160 h1         0 79        0.044700
     49 H16          3.5420    -1.2340    -0.7420 hn         0 79        0.388050
     50 H17          2.9220     0.0210     1.8010 h1         0 79        0.058450
     51 H18          5.3810     0.1910     1.9330 hc         0 79        0.045325
     52 H19          4.8790    -1.5020     1.7250 hc         0 79        0.045325
     53 H20          6.7860    -0.9510     0.2440 hc         0 79        0.038325
     54 H21          5.3300    -1.3360    -0.7070 hc         0 79        0.038325
     55 H22          6.2980     1.4730     0.0030 hc         0 79        0.038325
     56 H23          6.4610     0.6910    -1.5890 hc         0 79        0.038325
     57 H24          4.4870     2.1880    -1.5350 hc         0 79        0.045325
     58 H25          3.9950     0.4910    -1.7420 hc         0 79        0.045325
     59 H26          2.1930     1.7820    -1.1570 hn         0 79        0.388050
     60 H27          2.2800     3.1720     1.3960 h1         0 79        0.044700
     61 H28          2.8080     3.7690    -0.1950 h1         0 79        0.044700
     62 H29         -2.7430     2.3750     1.7240 h1         0 79        0.044700
     63 H30         -3.6660     2.8590     0.2850 h1         0 79        0.044700
     64 H31         -2.7510     1.1280    -0.9010 hn         0 79        0.388050
     65 H32         -3.7990     0.4870     1.7170 h1         0 79        0.058450
     66 H33         -4.9130     0.7380    -1.1080 hc         0 79        0.045325
     67 H34         -5.2630     1.7750     0.2960 hc         0 79        0.045325
     68 H35         -2.8590     4.7860    -0.6480 ha         0 79        0.141500
     69 H36         -0.9530     6.2160    -1.3600 ha         0 79        0.136000
     70 H37          1.3610     5.4310    -0.8970 ha         0 79        0.141500
@<TRIPOS>BOND
     1     1     2 1   
     2     1    30 1   
     3     1    35 1   
     4     1    36 1   
     5     2     3 1   
     6     2    37 1   
     7     2    38 1   
     8     3     4 1   
     9     3    39 1   
    10     3    40 1   
    11     4     5 1   
    12     4     6 1   
    13     4    29 1   
    14     6     7 1   
    15     6    41 1   
    16     7     8 1   
    17     7    42 1   
    18     7    43 1   
    19     8     9 ar  
    20     8    34 ar  
    21     9    10 ar  
    22     9    44 1   
    23    10    11 ar  
    24    10    45 1   
    25    11    12 ar  
    26    11    46 1   
    27    12    13 1   
    28    12    34 ar  
    29    13    14 1   
    30    13    47 1   
    31    13    48 1   
    32    14    15 1   
    33    14    49 1   
    34    15    16 1   
    35    15    20 1   
    36    15    50 1   
    37    16    17 1   
    38    16    51 1   
    39    16    52 1   
    40    17    18 1   
    41    17    53 1   
    42    17    54 1   
    43    18    19 1   
    44    18    55 1   
    45    18    56 1   
    46    19    20 1   
    47    19    57 1   
    48    19    58 1   
    49    20    21 1   
    50    20    22 1   
    51    22    23 1   
    52    22    59 1   
    53    23    24 1   
    54    23    60 1   
    55    23    61 1   
    56    24    25 ar  
    57    24    33 ar  
    58    25    26 ar  
    59    26    27 1   
    60    26    31 ar  
    61    27    28 1   
    62    27    62 1   
    63    27    63 1   
    64    28    29 1   
    65    28    64 1   
    66    29    30 1   
    67    29    65 1   
    68    30    66 1   
    69    30    67 1   
    70    31    32 ar  
    71    31    68 1   
    72    32    33 ar  
    73    32    69 1   
    74    33    70 1   
@<TRIPOS>SUBSTRUCTURE
     1 79          1 TEMP              0 ****  ****    0 ROOT
