@<TRIPOS>MOLECULE
191
   98   102     1     0     0
SMALL
bcc


@<TRIPOS>ATOM
      1 C            2.2410     0.8120     3.1910 c3         0 191       0.120633
      2 C1           0.8760     1.0400     3.8440 c3         0 191       0.194467
      3 N            0.0640    -0.1190     3.8210 n3         0 191      -0.780600
      4 C2           0.6640    -1.3940     3.9620 c3         0 191       0.194467
      5 C3          -0.1340    -2.4950     3.2610 c3         0 191       0.120633
      6 N1           0.7340    -3.1950     2.3050 n3         0 191      -0.817367
      7 C4           0.4030    -4.6230     2.4000 c3         0 191       0.203933
      8 C5           0.5020    -5.2530     1.0350 ca         0 191      -0.119633
      9 C6           0.1550    -4.5250    -0.0880 ca         0 191      -0.113333
     10 C7           0.2470    -5.1020    -1.3410 ca         0 191      -0.119633
     11 C8          -0.1300    -4.3070    -2.5650 c3         0 191       0.203933
     12 N2           0.5510    -3.0060    -2.5310 n3         0 191      -0.817367
     13 C9          -0.4800    -1.9830    -2.7510 c3         0 191       0.120633
     14 C10         -0.2210    -1.2760    -4.0830 c3         0 191       0.194467
     15 N3          -0.0480     0.1200    -3.9300 n3         0 191      -0.780600
     16 C11          1.2440     0.6820    -4.0710 c3         0 191       0.194467
     17 C12          1.4960     1.8260    -3.0860 c3         0 191       0.120633
     18 N4           2.8250     1.6650    -2.4820 n3         0 191      -0.817367
     19 C13          3.4590     2.9910    -2.4910 c3         0 191       0.203933
     20 C14          4.2440     3.1770    -1.2170 ca         0 191      -0.119633
     21 C15          5.4210     3.9000    -1.2280 ca         0 191      -0.124167
     22 C16          6.1400     4.0670    -0.0580 ca         0 191      -0.126667
     23 C17          5.6790     3.5120     1.1210 ca         0 191      -0.124167
     24 C18          4.5010     2.7900     1.1310 ca         0 191      -0.119633
     25 C19          3.9950     2.1850     2.4160 c3         0 191       0.203933
     26 N5           2.5520     1.9380     2.3010 n3         0 191      -0.817367
     27 C20          3.7830     2.6220    -0.0380 ca         0 191      -0.113333
     28 C21         -1.1820     0.9680    -3.9330 c3         0 191       0.194467
     29 C22         -2.2300     0.5470    -2.9010 c3         0 191       0.120633
     30 N6          -2.7980     1.7440    -2.2660 n3         0 191      -0.817367
     31 C23         -4.2590     1.6150    -2.3510 c3         0 191       0.203933
     32 C24         -4.8730     2.0520    -1.0450 ca         0 191      -0.119633
     33 C25         -6.1480     2.5860    -1.0230 ca         0 191      -0.124167
     34 C26         -6.7080     2.9860     0.1770 ca         0 191      -0.126667
     35 C27         -5.9930     2.8530     1.3520 ca         0 191      -0.124167
     36 C28         -4.7190     2.3180     1.3290 ca         0 191      -0.119633
     37 C29         -3.9370     2.1700     2.6090 c3         0 191       0.203933
     38 N7          -3.0230     1.0250     2.4900 n3         0 191      -0.817367
     39 C30         -1.8650     1.3160     3.3450 c3         0 191       0.120633
     40 C31         -1.3400     0.0100     3.9500 c3         0 191       0.194467
     41 C32         -4.1590     1.9180     0.1300 ca         0 191      -0.113333
     42 C33          0.6840    -6.4070    -1.4710 ca         0 191      -0.124167
     43 C34          1.0310    -7.1350    -0.3480 ca         0 191      -0.126667
     44 C35          0.9400    -6.5580     0.9050 ca         0 191      -0.124167
     45 H            3.0060     0.7370     3.9630 h1         0 191       0.038533
     46 H1           2.2170    -0.1120     2.6120 h1         0 191       0.038533
     47 H2           1.0280     1.3440     4.8800 h1         0 191       0.050783
     48 H3           0.3620     1.8420     3.3150 h1         0 191       0.050783
     49 H4           1.6670    -1.3610     3.5380 h1         0 191       0.050783
     50 H5           0.7380    -1.6330     5.0230 h1         0 191       0.050783
     51 H6          -0.5040    -3.2040     4.0030 h1         0 191       0.038533
     52 H7          -0.9770    -2.0520     2.7310 h1         0 191       0.038533
     53 H8           0.4520    -2.8930     1.3840 hn         0 191       0.360633
     54 H9           1.1020    -5.1130     3.0780 h1         0 191       0.056367
     55 H10         -0.6120    -4.7370     2.7800 h1         0 191       0.056367
     56 H11         -0.1880    -3.5060     0.0140 ha         0 191       0.139333
     57 H12          0.1720    -4.8520    -3.4590 h1         0 191       0.056367
     58 H13         -1.2090    -4.1530    -2.5800 h1         0 191       0.056367
     59 H14          0.8880    -2.8800    -1.5880 hn         0 191       0.360633
     60 H15         -1.4620    -2.4560    -2.7760 h1         0 191       0.038533
     61 H16         -0.4490    -1.2550    -1.9410 h1         0 191       0.038533
     62 H17          0.6780    -1.6960    -4.5350 h1         0 191       0.050783
     63 H18         -1.0650    -1.4570    -4.7480 h1         0 191       0.050783
     64 H19          1.9870    -0.0970    -3.9040 h1         0 191       0.050783
     65 H20          1.3540     1.0610    -5.0870 h1         0 191       0.050783
     66 H21          1.4500     2.7780    -3.6150 h1         0 191       0.038533
     67 H22          0.7370     1.8070    -2.3040 h1         0 191       0.038533
     68 H23          2.6760     1.4220    -1.5140 hn         0 191       0.360633
     69 H24          4.1300     3.0680    -3.3460 h1         0 191       0.056367
     70 H25          2.6900     3.7610    -2.5600 h1         0 191       0.056367
     71 H26          5.7810     4.3340    -2.1490 ha         0 191       0.132833
     72 H27          7.0600     4.6320    -0.0660 ha         0 191       0.134667
     73 H28          6.2410     3.6430     2.0350 ha         0 191       0.132833
     74 H29          4.5110     1.2430     2.6020 h1         0 191       0.056367
     75 H30          4.1830     2.8720     3.2410 h1         0 191       0.056367
     76 H31          2.3860     1.6170     1.3590 hn         0 191       0.360633
     77 H32          2.8620     2.0580    -0.0300 ha         0 191       0.139333
     78 H33         -0.8610     1.9870    -3.7140 h1         0 191       0.050783
     79 H34         -1.6340     0.9480    -4.9240 h1         0 191       0.050783
     80 H35         -3.0230    -0.0130    -3.3960 h1         0 191       0.038533
     81 H36         -1.7620    -0.0790    -2.1420 h1         0 191       0.038533
     82 H37         -2.5580     1.6950    -1.2880 hn         0 191       0.360633
     83 H38         -4.6340     2.2450    -3.1580 h1         0 191       0.056367
     84 H39         -4.5220     0.5760    -2.5470 h1         0 191       0.056367
     85 H40         -6.7060     2.6900    -1.9410 ha         0 191       0.132833
     86 H41         -7.7040     3.4040     0.1950 ha         0 191       0.134667
     87 H42         -6.4300     3.1660     2.2890 ha         0 191       0.132833
     88 H43         -3.3610     3.0770     2.7910 h1         0 191       0.056367
     89 H44         -4.6240     2.0020     3.4380 h1         0 191       0.056367
     90 H45         -3.4950     0.2330     2.9010 hn         0 191       0.360633
     91 H46         -1.0810     1.7820     2.7490 h1         0 191       0.038533
     92 H47         -2.1640     1.9930     4.1450 h1         0 191       0.038533
     93 H48         -1.8200    -0.8290     3.4470 h1         0 191       0.050783
     94 H49         -1.6010    -0.0190     5.0080 h1         0 191       0.050783
     95 H50         -3.1630     1.5010     0.1120 ha         0 191       0.139333
     96 H51          0.7560    -6.8570    -2.4500 ha         0 191       0.132833
     97 H52          1.3730    -8.1540    -0.4500 ha         0 191       0.134667
     98 H53          1.2110    -7.1260     1.7820 ha         0 191       0.132833
@<TRIPOS>BOND
     1     1     2 1   
     2     1    26 1   
     3     1    45 1   
     4     1    46 1   
     5     2     3 1   
     6     2    47 1   
     7     2    48 1   
     8     3     4 1   
     9     3    40 1   
    10     4     5 1   
    11     4    49 1   
    12     4    50 1   
    13     5     6 1   
    14     5    51 1   
    15     5    52 1   
    16     6     7 1   
    17     6    53 1   
    18     7     8 1   
    19     7    54 1   
    20     7    55 1   
    21     8     9 ar  
    22     8    44 ar  
    23     9    10 ar  
    24     9    56 1   
    25    10    11 1   
    26    10    42 ar  
    27    11    12 1   
    28    11    57 1   
    29    11    58 1   
    30    12    13 1   
    31    12    59 1   
    32    13    14 1   
    33    13    60 1   
    34    13    61 1   
    35    14    15 1   
    36    14    62 1   
    37    14    63 1   
    38    15    16 1   
    39    15    28 1   
    40    16    17 1   
    41    16    64 1   
    42    16    65 1   
    43    17    18 1   
    44    17    66 1   
    45    17    67 1   
    46    18    19 1   
    47    18    68 1   
    48    19    20 1   
    49    19    69 1   
    50    19    70 1   
    51    20    21 ar  
    52    20    27 ar  
    53    21    22 ar  
    54    21    71 1   
    55    22    23 ar  
    56    22    72 1   
    57    23    24 ar  
    58    23    73 1   
    59    24    25 1   
    60    24    27 ar  
    61    25    26 1   
    62    25    74 1   
    63    25    75 1   
    64    26    76 1   
    65    27    77 1   
    66    28    29 1   
    67    28    78 1   
    68    28    79 1   
    69    29    30 1   
    70    29    80 1   
    71    29    81 1   
    72    30    31 1   
    73    30    82 1   
    74    31    32 1   
    75    31    83 1   
    76    31    84 1   
    77    32    33 ar  
    78    32    41 ar  
    79    33    34 ar  
    80    33    85 1   
    81    34    35 ar  
    82    34    86 1   
    83    35    36 ar  
    84    35    87 1   
    85    36    37 1   
    86    36    41 ar  
    87    37    38 1   
    88    37    88 1   
    89    37    89 1   
    90    38    39 1   
    91    38    90 1   
    92    39    40 1   
    93    39    91 1   
    94    39    92 1   
    95    40    93 1   
    96    40    94 1   
    97    41    95 1   
    98    42    43 ar  
    99    42    96 1   
   100    43    44 ar  
   101    43    97 1   
   102    44    98 1   
@<TRIPOS>SUBSTRUCTURE
     1 191         1 TEMP              0 ****  ****    0 ROOT
