@<TRIPOS>MOLECULE
102
  126   136     1     0     0
SMALL
bcc


@<TRIPOS>ATOM
      1 C          -10.5130     1.7850     0.0830 c3         0 102      -0.076650
      2 C1         -10.6450     0.2650     0.0080 c3         0 102      -0.076650
      3 C2          -9.3670    -0.3420    -0.5680 c3         0 102      -0.089900
      4 C3          -8.1890     0.0010     0.3530 c3         0 102       0.128000
      5 N           -6.9900    -0.7100    -0.1240 n2         0 102      -0.594150
      6 C4          -6.9640    -1.9320     0.2630 ce         0 102       0.483300
      7 C5          -6.0870    -3.0670     0.0560 ca         0 102      -0.139900
      8 C6          -6.0480    -4.0590     1.0500 ca         0 102      -0.107375
      9 C7          -5.2390    -5.1650     0.9010 ca         0 102      -0.111500
     10 C8          -4.4680    -5.2950    -0.2380 ca         0 102      -0.094300
     11 C9          -4.5180    -4.3530    -1.2400 ca         0 102      -0.111500
     12 C10         -5.3210    -3.2340    -1.1000 ca         0 102      -0.107375
     13 C11         -3.4930    -6.4620    -0.3300 c3         0 102       0.376950
     14 O           -2.9310    -6.5850     0.9710 os         0 102      -0.432850
     15 C12         -1.8770    -7.5300     1.0370 c3         0 102       0.142275
     16 C13         -0.7870    -7.1360     0.0430 c3         0 102      -0.182000
     17 C14         -1.4580    -7.0830    -1.3330 c3         0 102       0.142275
     18 O1          -2.4850    -6.0970    -1.2700 os         0 102      -0.432850
     19 C15         -0.2220    -5.7460     0.3700 c3         0 102       0.142275
     20 O2           0.7940    -5.4660    -0.5910 os         0 102      -0.432850
     21 C16          1.8670    -6.4040    -0.4670 c3         0 102       0.376950
     22 O3           1.5570    -7.3720     0.5220 os         0 102      -0.432850
     23 C17          0.3920    -8.1020     0.0780 c3         0 102       0.142275
     24 C18          3.1090    -5.6050    -0.1590 ca         0 102      -0.094300
     25 C19          3.6880    -5.6130     1.0910 ca         0 102      -0.111500
     26 C20          4.7830    -4.8150     1.3450 ca         0 102      -0.107375
     27 C21          5.3110    -3.9990     0.3390 ca         0 102      -0.139900
     28 C22          4.7420    -4.0230    -0.9360 ca         0 102      -0.107375
     29 C23          3.6540    -4.8300    -1.1780 ca         0 102      -0.111500
     30 C24          6.4720    -3.1540     0.6290 ce         0 102       0.483300
     31 N1           6.8140    -2.0760    -0.0170 n2         0 102      -0.594150
     32 C25          8.0720    -1.4940     0.4540 c3         0 102       0.128000
     33 C26          9.2300    -2.2340    -0.2150 c3         0 102      -0.089900
     34 C27         10.5500    -1.7800     0.4130 c3         0 102      -0.076650
     35 C28         10.7170    -0.2770     0.2030 c3         0 102      -0.076650
     36 C29          9.5090     0.2730    -0.5630 c3         0 102      -0.089900
     37 C30          8.2370     0.0090     0.2520 c3         0 102       0.128000
     38 N2           7.1070     0.7140    -0.3480 n2         0 102      -0.594150
     39 C31          6.8800     1.8550     0.1230 ce         0 102       0.483300
     40 C32          6.0330     3.0160    -0.0200 ca         0 102      -0.139900
     41 C33          5.5610     3.6490     1.1420 ca         0 102      -0.107375
     42 C34          4.7650     4.7640     1.0470 ca         0 102      -0.111500
     43 C35          4.4340     5.2700    -0.2000 ca         0 102      -0.094300
     44 C36          4.9090     4.6810    -1.3480 ca         0 102      -0.111500
     45 C37          5.7050     3.5560    -1.2670 ca         0 102      -0.107375
     46 C38          3.4730     6.4460    -0.2570 c3         0 102       0.376950
     47 O4           2.8570     6.4590     1.0270 os         0 102      -0.432850
     48 C39          1.8380     7.4370     1.1370 c3         0 102       0.142275
     49 C40          0.7770     7.1370     0.0780 c3         0 102      -0.182000
     50 C41          0.1940     5.7340     0.2950 c3         0 102       0.142275
     51 O5          -0.8170     5.5450    -0.6930 os         0 102      -0.432850
     52 C42         -1.8880     6.4640    -0.4750 c3         0 102       0.376950
     53 O6          -1.5550     7.3650     0.5690 os         0 102      -0.432850
     54 C43         -0.3920     8.1140     0.1500 c3         0 102       0.142275
     55 C44         -3.1170     5.6420    -0.1600 ca         0 102      -0.094300
     56 C45         -3.8130     5.8210     1.0140 ca         0 102      -0.111500
     57 C46         -4.9250     5.0360     1.2790 ca         0 102      -0.107375
     58 C47         -5.3330     4.0630     0.3660 ca         0 102      -0.139900
     59 C48         -4.6240     3.8950    -0.8290 ca         0 102      -0.107375
     60 C49         -3.5230     4.6890    -1.0840 ca         0 102      -0.111500
     61 C50         -6.5150     3.2430     0.6350 ce         0 102       0.483300
     62 N3          -6.7470     2.0730     0.1470 n2         0 102      -0.594150
     63 C51         -8.0620     1.5120     0.4820 c3         0 102       0.128000
     64 C52         -9.1160     2.1930    -0.4040 c3         0 102      -0.089900
     65 C53          1.4900     7.1740    -1.2760 c3         0 102       0.142275
     66 O7           2.4990     6.1660    -1.2620 os         0 102      -0.432850
     67 H          -11.2690     2.2480    -0.5510 hc         0 102       0.041950
     68 H1         -10.6490     2.1120     1.1140 hc         0 102       0.041950
     69 H2         -10.8150    -0.1330     1.0080 hc         0 102       0.041950
     70 H3         -11.4890     0.0060    -0.6310 hc         0 102       0.041950
     71 H4          -9.4750    -1.4240    -0.6340 hc         0 102       0.048575
     72 H5          -9.1850     0.0690    -1.5610 hc         0 102       0.048575
     73 H6          -8.4250    -0.4230     1.3470 h1         0 102       0.062450
     74 H7          -7.8020    -2.1760     0.8990 h4         0 102      -0.025950
     75 H8          -6.6570    -3.9550     1.9360 ha         0 102       0.144250
     76 H9          -5.2080    -5.9240     1.6690 ha         0 102       0.148750
     77 H10         -3.9300    -4.4870    -2.1360 ha         0 102       0.148750
     78 H11         -5.3550    -2.4920    -1.8840 ha         0 102       0.144250
     79 H12         -4.0180    -7.3470    -0.6480 h2         0 102       0.062950
     80 H13         -1.4630    -7.5440     2.0450 h1         0 102       0.062638
     81 H14         -2.2590    -8.5200     0.7850 h1         0 102       0.062638
     82 H15         -0.7260    -6.8070    -2.0920 h1         0 102       0.062638
     83 H16         -1.8920    -8.0540    -1.5720 h1         0 102       0.062638
     84 H17         -1.0130    -4.9990     0.3020 h1         0 102       0.062638
     85 H18          0.2050    -5.7450     1.3730 h1         0 102       0.062638
     86 H19          2.0140    -6.9090    -1.4280 h2         0 102       0.062950
     87 H20          0.1810    -8.9160     0.7710 h1         0 102       0.062638
     88 H21          0.5690    -8.5040    -0.9200 h1         0 102       0.062638
     89 H22          3.2860    -6.2440     1.8700 ha         0 102       0.148750
     90 H23          5.2350    -4.8200     2.3260 ha         0 102       0.144250
     91 H24          5.1530    -3.4130    -1.7270 ha         0 102       0.144250
     92 H25          3.2190    -4.8620    -2.1660 ha         0 102       0.148750
     93 H26          7.1020    -3.4530     1.4540 h4         0 102      -0.025950
     94 H27          8.1340    -1.7050     1.5410 h1         0 102       0.062450
     95 H28          9.1090    -3.3080    -0.0700 hc         0 102       0.048575
     96 H29          9.2390    -2.0090    -1.2820 hc         0 102       0.048575
     97 H30         10.5390    -2.0000     1.4810 hc         0 102       0.041950
     98 H31         11.3790    -2.3080    -0.0590 hc         0 102       0.041950
     99 H32         10.7890     0.2190     1.1720 hc         0 102       0.041950
    100 H33         11.6260    -0.0890    -0.3680 hc         0 102       0.041950
    101 H34          9.6290     1.3460    -0.7130 hc         0 102       0.048575
    102 H35          9.4320    -0.2250    -1.5300 hc         0 102       0.048575
    103 H36          8.4010     0.4730     1.2460 h1         0 102       0.062450
    104 H37          7.5710     2.0340     0.9340 h4         0 102      -0.025950
    105 H38          5.8250     3.2570     2.1130 ha         0 102       0.144250
    106 H39          4.3990     5.2460     1.9410 ha         0 102       0.148750
    107 H40          4.6610     5.0990    -2.3120 ha         0 102       0.148750
    108 H41          6.0760     3.0920    -2.1690 ha         0 102       0.144250
    109 H42          4.0050     7.3490    -0.4890 h2         0 102       0.062950
    110 H43          1.3900     7.3920     2.1300 h1         0 102       0.062638
    111 H44          2.2580     8.4280     0.9670 h1         0 102       0.062638
    112 H45          0.9760     4.9840     0.1750 h1         0 102       0.062638
    113 H46         -0.2420     5.6620     1.2910 h1         0 102       0.062638
    114 H47         -2.0760     7.0330    -1.3890 h2         0 102       0.062950
    115 H48         -0.1750     8.8990     0.8750 h1         0 102       0.062638
    116 H49         -0.5680     8.5540    -0.8320 h1         0 102       0.062638
    117 H50         -3.4950     6.5690     1.7250 ha         0 102       0.148750
    118 H51         -5.4770     5.1790     2.1960 ha         0 102       0.144250
    119 H52         -4.9350     3.1500    -1.5460 ha         0 102       0.144250
    120 H53         -2.9760     4.5680    -2.0070 ha         0 102       0.148750
    121 H54         -7.2590     3.6540     1.3020 h4         0 102      -0.025950
    122 H55         -8.2750     1.8040     1.5310 h1         0 102       0.062450
    123 H56         -8.9830     1.8740    -1.4380 hc         0 102       0.048575
    124 H57         -9.0050     3.2750    -0.3370 hc         0 102       0.048575
    125 H58          0.7770     6.9720    -2.0750 h1         0 102       0.062638
    126 H59          1.9470     8.1520    -1.4260 h1         0 102       0.062638
@<TRIPOS>BOND
     1     1     2 1   
     2     1    64 1   
     3     1    67 1   
     4     1    68 1   
     5     2     3 1   
     6     2    69 1   
     7     2    70 1   
     8     3     4 1   
     9     3    71 1   
    10     3    72 1   
    11     4     5 1   
    12     4    63 1   
    13     4    73 1   
    14     5     6 2   
    15     6     7 1   
    16     6    74 1   
    17     7     8 ar  
    18     7    12 ar  
    19     8     9 ar  
    20     8    75 1   
    21     9    10 ar  
    22     9    76 1   
    23    10    11 ar  
    24    10    13 1   
    25    11    12 ar  
    26    11    77 1   
    27    12    78 1   
    28    13    14 1   
    29    13    18 1   
    30    13    79 1   
    31    14    15 1   
    32    15    16 1   
    33    15    80 1   
    34    15    81 1   
    35    16    17 1   
    36    16    19 1   
    37    16    23 1   
    38    17    18 1   
    39    17    82 1   
    40    17    83 1   
    41    19    20 1   
    42    19    84 1   
    43    19    85 1   
    44    20    21 1   
    45    21    22 1   
    46    21    24 1   
    47    21    86 1   
    48    22    23 1   
    49    23    87 1   
    50    23    88 1   
    51    24    25 ar  
    52    24    29 ar  
    53    25    26 ar  
    54    25    89 1   
    55    26    27 ar  
    56    26    90 1   
    57    27    28 ar  
    58    27    30 1   
    59    28    29 ar  
    60    28    91 1   
    61    29    92 1   
    62    30    31 2   
    63    30    93 1   
    64    31    32 1   
    65    32    33 1   
    66    32    37 1   
    67    32    94 1   
    68    33    34 1   
    69    33    95 1   
    70    33    96 1   
    71    34    35 1   
    72    34    97 1   
    73    34    98 1   
    74    35    36 1   
    75    35    99 1   
    76    35   100 1   
    77    36    37 1   
    78    36   101 1   
    79    36   102 1   
    80    37    38 1   
    81    37   103 1   
    82    38    39 2   
    83    39    40 1   
    84    39   104 1   
    85    40    41 ar  
    86    40    45 ar  
    87    41    42 ar  
    88    41   105 1   
    89    42    43 ar  
    90    42   106 1   
    91    43    44 ar  
    92    43    46 1   
    93    44    45 ar  
    94    44   107 1   
    95    45   108 1   
    96    46    47 1   
    97    46    66 1   
    98    46   109 1   
    99    47    48 1   
   100    48    49 1   
   101    48   110 1   
   102    48   111 1   
   103    49    50 1   
   104    49    54 1   
   105    49    65 1   
   106    50    51 1   
   107    50   112 1   
   108    50   113 1   
   109    51    52 1   
   110    52    53 1   
   111    52    55 1   
   112    52   114 1   
   113    53    54 1   
   114    54   115 1   
   115    54   116 1   
   116    55    56 ar  
   117    55    60 ar  
   118    56    57 ar  
   119    56   117 1   
   120    57    58 ar  
   121    57   118 1   
   122    58    59 ar  
   123    58    61 1   
   124    59    60 ar  
   125    59   119 1   
   126    60   120 1   
   127    61    62 2   
   128    61   121 1   
   129    62    63 1   
   130    63    64 1   
   131    63   122 1   
   132    64   123 1   
   133    64   124 1   
   134    65    66 1   
   135    65   125 1   
   136    65   126 1   
@<TRIPOS>SUBSTRUCTURE
     1 102         1 TEMP              0 ****  ****    0 ROOT
