@<TRIPOS>MOLECULE
12
  100   104     1     0     0
SMALL
bcc


@<TRIPOS>ATOM
      1 O1          -8.9570    -2.9650    -0.2910 o          1 12       -0.529000
      2 C1          -8.5110    -2.3790    -1.2620 c          1 12        0.607850
      3 O2          -9.3590    -1.8900    -2.1960 oh         1 12       -0.589100
      4 C2          -7.0280    -2.1740    -1.6140 c3         1 12        0.076700
      5 C3          -6.4100    -3.5300    -1.9670 c3         1 12       -0.052050
      6 S1          -5.3010    -4.1880    -0.6620 ss         1 12       -0.154100
      7 S2          -6.5150    -5.4400     0.4240 ss         1 12       -0.154100
      8 C4          -7.1610    -4.3870     1.7830 c3         1 12       -0.052050
      9 C5          -6.3150    -4.4860     3.0610 c3         1 12        0.076700
     10 C6          -7.1580    -3.9500     4.2290 c          1 12        0.607850
     11 O3          -7.9960    -4.6380     4.8020 o          1 12       -0.529000
     12 O4          -7.0050    -2.6440     4.5290 oh         1 12       -0.589100
     13 N1          -4.9540    -3.9350     2.9340 n          1 12       -0.563400
     14 C7          -4.6770    -2.6410     2.5720 c          1 12        0.679450
     15 O5          -5.5510    -1.7790     2.5880 o          1 12       -0.592600
     16 C8          -3.2680    -2.3010     2.2460 ca         1 12       -0.133100
     17 C9          -2.8340    -0.9940     2.4930 ca         1 12       -0.092875
     18 C10         -1.5200    -0.6250     2.1970 ca         1 12       -0.110000
     19 C11         -0.6320    -1.5390     1.6240 ca         1 12        0.117150
     20 C12         -1.0730    -2.8480     1.3830 ca         1 12       -0.110000
     21 C13         -2.3850    -3.2300     1.6860 ca         1 12       -0.092875
     22 N2           0.6830    -1.1320     1.3340 ne         1 12       -0.194400
     23 N3           0.9180    -1.2620     0.1130 nf         1 12       -0.194400
     24 C14          2.2140    -0.8260    -0.2210 ca         1 12        0.117150
     25 C15          3.3540    -1.1880     0.5140 ca         1 12       -0.110000
     26 C16          4.6270    -0.7580     0.1250 ca         1 12       -0.092875
     27 C17          4.7750     0.0310    -1.0220 ca         1 12       -0.133100
     28 C18          3.6450     0.4010    -1.7580 ca         1 12       -0.092875
     29 C19          2.3770    -0.0370    -1.3640 ca         1 12       -0.110000
     30 C20          6.1060     0.5210    -1.4690 c          1 12        0.679450
     31 O6           6.1960     1.5680    -2.0970 o          1 12       -0.592600
     32 N4           7.1860    -0.2810    -1.1640 n          1 12       -0.563400
     33 C21          8.5420     0.0400    -1.6400 c3         1 12        0.076700
     34 C22          8.6100    -0.2160    -3.1490 c          1 12        0.607850
     35 O7           7.9670    -1.0620    -3.7570 o          1 12       -0.529000
     36 O8           9.5340     0.5140    -3.8010 oh         1 12       -0.589100
     37 C23          9.0580     1.4320    -1.2430 c3         1 12       -0.052050
     38 S3           9.0300     1.6470     0.5790 ss         1 12       -0.154100
     39 S4           9.0250     3.6960     0.7820 ss         1 12       -0.154100
     40 C24          7.2570     4.1320     0.5110 c3         1 12       -0.052050
     41 C25          6.3120     3.5960     1.5980 c3         1 12        0.076700
     42 C26          6.1370     4.5270     2.8030 c          1 12        0.607850
     43 O9           5.1980     4.4990     3.5900 o          1 12       -0.529000
     44 O10          7.1580     5.3740     3.0240 oh         1 12       -0.589100
     45 N5           4.9730     3.2620     1.0890 n          1 12       -0.563400
     46 C27          4.2210     4.1560     0.3610 c          1 12        0.679450
     47 O11          4.6410     5.2350    -0.0350 o          1 12       -0.592600
     48 C28          2.8310     3.7380     0.0560 ca         1 12       -0.133100
     49 C29          2.2970     4.0510    -1.1970 ca         1 12       -0.092875
     50 C30          0.9920     3.6630    -1.5160 ca         1 12       -0.110000
     51 C31          0.2010     2.9660    -0.5930 ca         1 12        0.117150
     52 C32          0.7370     2.6960     0.6760 ca         1 12       -0.110000
     53 C33          2.0440     3.0730     1.0020 ca         1 12       -0.092875
     54 N6          -1.1080     2.6140    -0.9750 ne         1 12       -0.194400
     55 N7          -1.4530     1.5000    -0.5260 nf         1 12       -0.194400
     56 C34         -2.7330     1.1400    -0.9940 ca         1 12        0.117150
     57 C35         -2.9100    -0.1250    -1.5660 ca         1 12       -0.110000
     58 C36         -4.1520    -0.5120    -2.0860 ca         1 12       -0.092875
     59 C37         -5.2410     0.3630    -2.0150 ca         1 12       -0.133100
     60 C38         -5.0810     1.6180    -1.4180 ca         1 12       -0.092875
     61 C39         -3.8390     1.9970    -0.9010 ca         1 12       -0.110000
     62 C40         -6.5400     0.0500    -2.6630 c          1 12        0.679450
     63 O12         -7.2210     0.9460    -3.1500 o          1 12       -0.592600
     64 N8          -6.9520    -1.2580    -2.7760 n          1 12       -0.563400
     65 H1         -10.2550    -2.0690    -1.8350 ho         1 12        0.453500
     66 H2          -6.5580    -1.6840    -0.7550 h1         1 12        0.102950
     67 H3          -7.1620    -4.2830    -2.2290 h1         1 12        0.116450
     68 H4          -5.7670    -3.4260    -2.8490 h1         1 12        0.116450
     69 H5          -8.1790    -4.7410     1.9840 h1         1 12        0.116450
     70 H6          -7.2500    -3.3510     1.4470 h1         1 12        0.116450
     71 H7          -6.1490    -5.5450     3.3070 h1         1 12        0.102950
     72 H8          -6.4480    -2.1580     3.8730 ho         1 12        0.453500
     73 H9          -4.2030    -4.6130     2.9450 hn         1 12        0.328000
     74 H10         -3.5130    -0.2560     2.9170 ha         1 12        0.152875
     75 H11         -1.1920     0.3920     2.3970 ha         1 12        0.154875
     76 H12         -0.3900    -3.5700     0.9410 ha         1 12        0.154875
     77 H13         -2.6980    -4.2410     1.4450 ha         1 12        0.152875
     78 H14          3.2480    -1.8110     1.4000 ha         1 12        0.154875
     79 H15          5.4850    -1.0310     0.7330 ha         1 12        0.152875
     80 H16          3.7470     1.0250    -2.6440 ha         1 12        0.152875
     81 H17          1.5050     0.2490    -1.9480 ha         1 12        0.154875
     82 H18          6.9950    -1.2600    -0.9930 hn         1 12        0.328000
     83 H19          9.1980    -0.7170    -1.1890 h1         1 12        0.102950
     84 H20          9.4390     0.2390    -4.7380 ho         1 12        0.453500
     85 H21          8.4780     2.2220    -1.7260 h1         1 12        0.116450
     86 H22         10.0990     1.5550    -1.5640 h1         1 12        0.116450
     87 H23          6.9820     3.7480    -0.4760 h1         1 12        0.116450
     88 H24          7.2070     5.2240     0.4470 h1         1 12        0.116450
     89 H25          6.6870     2.6510     2.0070 h1         1 12        0.102950
     90 H26          6.8820     5.8860     3.8130 ho         1 12        0.453500
     91 H27          4.5390     2.4190     1.4400 hn         1 12        0.328000
     92 H28          2.8970     4.5910    -1.9270 ha         1 12        0.152875
     93 H29          0.5860     3.9050    -2.4950 ha         1 12        0.154875
     94 H30          0.1300     2.1910     1.4220 ha         1 12        0.154875
     95 H31          2.4190     2.8700     2.0020 ha         1 12        0.152875
     96 H32         -2.0610    -0.8010    -1.6380 ha         1 12        0.154875
     97 H33         -4.2380    -1.4720    -2.5850 ha         1 12        0.152875
     98 H34         -5.9160     2.3160    -1.3780 ha         1 12        0.152875
     99 H35         -3.7250     2.9800    -0.4490 ha         1 12        0.154875
    100 H36         -7.8260    -1.2620    -3.3040 hn         1 12        0.328000
@<TRIPOS>BOND
     1     1     2 2   
     2     2     3 1   
     3     2     4 1   
     4     3    65 1   
     5     4     5 1   
     6     4    64 1   
     7     4    66 1   
     8     5     6 1   
     9     5    67 1   
    10     5    68 1   
    11     6     7 1   
    12     7     8 1   
    13     8     9 1   
    14     8    69 1   
    15     8    70 1   
    16     9    10 1   
    17     9    13 1   
    18     9    71 1   
    19    10    11 2   
    20    10    12 1   
    21    12    72 1   
    22    13    14 1   
    23    13    73 1   
    24    14    15 2   
    25    14    16 1   
    26    16    17 ar  
    27    16    21 ar  
    28    17    18 ar  
    29    17    74 1   
    30    18    19 ar  
    31    18    75 1   
    32    19    20 ar  
    33    19    22 1   
    34    20    21 ar  
    35    20    76 1   
    36    21    77 1   
    37    22    23 2   
    38    23    24 1   
    39    24    25 ar  
    40    24    29 ar  
    41    25    26 ar  
    42    25    78 1   
    43    26    27 ar  
    44    26    79 1   
    45    27    28 ar  
    46    27    30 1   
    47    28    29 ar  
    48    28    80 1   
    49    29    81 1   
    50    30    31 2   
    51    30    32 1   
    52    32    33 1   
    53    32    82 1   
    54    33    34 1   
    55    33    37 1   
    56    33    83 1   
    57    34    35 2   
    58    34    36 1   
    59    36    84 1   
    60    37    38 1   
    61    37    85 1   
    62    37    86 1   
    63    38    39 1   
    64    39    40 1   
    65    40    41 1   
    66    40    87 1   
    67    40    88 1   
    68    41    42 1   
    69    41    45 1   
    70    41    89 1   
    71    42    43 2   
    72    42    44 1   
    73    44    90 1   
    74    45    46 1   
    75    45    91 1   
    76    46    47 2   
    77    46    48 1   
    78    48    49 ar  
    79    48    53 ar  
    80    49    50 ar  
    81    49    92 1   
    82    50    51 ar  
    83    50    93 1   
    84    51    52 ar  
    85    51    54 1   
    86    52    53 ar  
    87    52    94 1   
    88    53    95 1   
    89    54    55 2   
    90    55    56 1   
    91    56    57 ar  
    92    56    61 ar  
    93    57    58 ar  
    94    57    96 1   
    95    58    59 ar  
    96    58    97 1   
    97    59    60 ar  
    98    59    62 1   
    99    60    61 ar  
   100    60    98 1   
   101    61    99 1   
   102    62    63 2   
   103    62    64 1   
   104    64   100 1   
@<TRIPOS>SUBSTRUCTURE
     1 12          1 TEMP              0 ****  ****    0 ROOT
