@<TRIPOS>MOLECULE
24
   82    87     1     0     0
SMALL
bcc


@<TRIPOS>ATOM
      1 O1           1.0240     0.4230     2.1400 o          1 24       -0.602600
      2 C1           1.3850     0.9110     1.0690 c          1 24        0.664700
      3 N1           1.3450     2.2720     0.9440 n          1 24       -0.569400
      4 C2           1.5540     3.1350    -0.2020 c3         1 24        0.098000
      5 C3           1.5680     4.6130     0.1970 c3         1 24       -0.119400
      6 C4           1.3820     5.5460    -1.0050 c3         1 24        0.153300
      7 N2           0.0890     5.2690    -1.6250 n3         1 24       -0.825200
      8 C5          -0.2010     6.1190    -2.7730 c3         1 24        0.164800
      9 C6          -1.2010     5.4480    -3.7250 c3         1 24       -0.097900
     10 C7          -2.5520     5.0360    -3.1140 c3         1 24        0.083000
     11 N3          -2.5070     3.7890    -2.3430 n          1 24       -0.485400
     12 C8          -2.3580     2.6060    -3.0710 c          1 24        0.719350
     13 O2          -2.3560     2.5480    -4.2990 o          1 24       -0.604000
     14 C9          -2.1870     1.3750    -2.2530 ca         1 24       -0.114350
     15 C10         -1.9500     0.1900    -2.8470 ca         1 24       -0.060250
     16 C11         -1.7420    -1.0210    -2.0700 ca         1 24       -0.060250
     17 C12         -1.8100    -1.0150    -0.7250 ca         1 24       -0.114350
     18 C13         -1.5210    -2.2510     0.0500 c          1 24        0.719350
     19 O3          -1.0700    -3.2480    -0.5110 o          1 24       -0.604000
     20 N4          -1.7840    -2.1600     1.4180 n          1 24       -0.485400
     21 C14         -1.5850    -3.3720     2.2150 c3         1 24        0.083000
     22 C15         -0.1470    -3.4680     2.7300 c3         1 24       -0.097900
     23 C16          0.1380    -4.7760     3.4750 c3         1 24        0.164800
     24 N5          -0.0770    -6.0140     2.7170 n3         1 24       -0.825200
     25 C17          0.5960    -6.0730     1.4160 c3         1 24        0.153300
     26 C18          2.1260    -6.0680     1.4870 c3         1 24       -0.119400
     27 C19          2.7560    -5.9350     0.0970 c3         1 24        0.098000
     28 N6           2.5240    -4.6300    -0.4960 n          1 24       -0.569400
     29 C20          3.2010    -3.5190    -0.0370 c          1 24        0.664700
     30 O4           4.1210    -3.5430     0.7690 o          1 24       -0.602600
     31 C21          2.6840    -2.2250    -0.5310 ca         1 24       -0.144600
     32 C22          2.4720    -2.0060    -1.8930 ca         1 24       -0.082500
     33 C23          1.9410    -0.7890    -2.3140 ca         1 24       -0.155000
     34 C24          1.6050     0.1970    -1.3770 ca         1 24       -0.082500
     35 C25          1.8240    -0.0120    -0.0120 ca         1 24       -0.144600
     36 C26          2.3800    -1.2310     0.4030 ca         1 24       -0.033000
     37 C27         -2.1260    -0.9910     2.1160 c          1 24        0.719350
     38 O5          -2.3490    -0.9570     3.3240 o          1 24       -0.604000
     39 C28         -2.2470     0.2660     1.3390 ca         1 24       -0.114350
     40 C29         -2.4960     1.4840     1.9860 ca         1 24       -0.060250
     41 C30         -2.6120     2.6650     1.2430 ca         1 24       -0.060250
     42 C31         -2.5000     2.6340    -0.1530 ca         1 24       -0.114350
     43 C32         -2.5810     3.8830    -0.9460 c          1 24        0.719350
     44 O6          -2.6640     4.9500    -0.3390 o          1 24       -0.604000
     45 C33         -2.2710     1.4240    -0.7940 ca         1 24       -0.007500
     46 C34         -2.1230     0.2400    -0.0440 ca         1 24       -0.007500
     47 H1           0.9730     2.7000     1.7850 hn         1 24        0.320500
     48 H2           2.4890     2.8570    -0.6970 h1         1 24        0.053450
     49 H3           0.7230     2.9360    -0.8830 h1         1 24        0.053450
     50 H4           0.7750     4.8120     0.9300 hc         1 24        0.051700
     51 H5           2.5150     4.8440     0.7000 hc         1 24        0.051700
     52 H6           1.4290     6.5870    -0.6670 h1         1 24        0.047200
     53 H7           2.1940     5.3800    -1.7220 h1         1 24        0.047200
     54 H8          -0.6490     5.4290    -0.9280 hn         1 24        0.359300
     55 H9           0.7120     6.3240    -3.3450 h1         1 24        0.033700
     56 H10         -0.5930     7.0840    -2.4310 h1         1 24        0.033700
     57 H11         -1.4050     6.1630    -4.5320 hc         1 24        0.060450
     58 H12         -0.7170     4.5850    -4.1970 hc         1 24        0.060450
     59 H13         -3.2640     4.8790    -3.9350 h1         1 24        0.080450
     60 H14         -2.9540     5.8560    -2.5090 h1         1 24        0.080450
     61 H15         -1.8840     0.1020    -3.9300 ha         1 24        0.173750
     62 H16         -1.4990    -1.9280    -2.6200 ha         1 24        0.173750
     63 H17         -1.8390    -4.2400     1.5970 h1         1 24        0.080450
     64 H18         -2.2810    -3.3720     3.0610 h1         1 24        0.080450
     65 H19          0.0470    -2.6300     3.4120 hc         1 24        0.060450
     66 H20          0.5620    -3.3410     1.9040 hc         1 24        0.060450
     67 H21          1.1650    -4.7500     3.8590 h1         1 24        0.033700
     68 H22         -0.5090    -4.8180     4.3590 h1         1 24        0.033700
     69 H23          0.2260    -6.8020     3.2890 hn         1 24        0.359300
     70 H24          0.2780    -7.0020     0.9280 h1         1 24        0.047200
     71 H25          0.2270    -5.2730     0.7680 h1         1 24        0.047200
     72 H26          2.4650    -7.0050     1.9460 hc         1 24        0.051700
     73 H27          2.4870    -5.2530     2.1220 hc         1 24        0.051700
     74 H28          2.3540    -6.6870    -0.5910 h1         1 24        0.053450
     75 H29          3.8390    -6.0880     0.1730 h1         1 24        0.053450
     76 H30          1.6410    -4.4780    -0.9730 hn         1 24        0.320500
     77 H31          2.7220    -2.7730    -2.6220 ha         1 24        0.144000
     78 H32          1.7640    -0.6130    -3.3730 ha         1 24        0.139000
     79 H33          1.1300     1.0950    -1.7500 ha         1 24        0.144000
     80 H34          2.5460    -1.4270     1.4620 ha         1 24        0.178000
     81 H35         -2.5840     1.5180     3.0710 ha         1 24        0.173750
     82 H36         -2.7870     3.6070     1.7620 ha         1 24        0.173750
@<TRIPOS>BOND
     1     1     2 2   
     2     2     3 1   
     3     2    35 1   
     4     3     4 1   
     5     3    47 1   
     6     4     5 1   
     7     4    48 1   
     8     4    49 1   
     9     5     6 1   
    10     5    50 1   
    11     5    51 1   
    12     6     7 1   
    13     6    52 1   
    14     6    53 1   
    15     7     8 1   
    16     7    54 1   
    17     8     9 1   
    18     8    55 1   
    19     8    56 1   
    20     9    10 1   
    21     9    57 1   
    22     9    58 1   
    23    10    11 1   
    24    10    59 1   
    25    10    60 1   
    26    11    12 1   
    27    11    43 1   
    28    12    13 2   
    29    12    14 1   
    30    14    15 ar  
    31    14    45 ar  
    32    15    16 ar  
    33    15    61 1   
    34    16    17 ar  
    35    16    62 1   
    36    17    18 1   
    37    17    46 ar  
    38    18    19 2   
    39    18    20 1   
    40    20    21 1   
    41    20    37 1   
    42    21    22 1   
    43    21    63 1   
    44    21    64 1   
    45    22    23 1   
    46    22    65 1   
    47    22    66 1   
    48    23    24 1   
    49    23    67 1   
    50    23    68 1   
    51    24    25 1   
    52    24    69 1   
    53    25    26 1   
    54    25    70 1   
    55    25    71 1   
    56    26    27 1   
    57    26    72 1   
    58    26    73 1   
    59    27    28 1   
    60    27    74 1   
    61    27    75 1   
    62    28    29 1   
    63    28    76 1   
    64    29    30 2   
    65    29    31 1   
    66    31    32 ar  
    67    31    36 ar  
    68    32    33 ar  
    69    32    77 1   
    70    33    34 ar  
    71    33    78 1   
    72    34    35 ar  
    73    34    79 1   
    74    35    36 ar  
    75    36    80 1   
    76    37    38 2   
    77    37    39 1   
    78    39    40 ar  
    79    39    46 ar  
    80    40    41 ar  
    81    40    81 1   
    82    41    42 ar  
    83    41    82 1   
    84    42    43 1   
    85    42    45 ar  
    86    43    44 2   
    87    45    46 ar  
@<TRIPOS>SUBSTRUCTURE
     1 24          1 TEMP              0 ****  ****    0 ROOT
