@<TRIPOS>MOLECULE
193
   89    93     1     0     0
SMALL
bcc


@<TRIPOS>ATOM
      1 C            1.2250     1.5940     3.3390 c3         0 193       0.152133
      2 C1           0.1930     0.7050     4.0360 c3         0 193       0.176800
      3 N            0.3760    -0.6680     3.7440 n3         0 193      -0.751600
      4 C2           1.6850    -1.2040     3.7040 c3         0 193       0.176800
      5 C3           1.8030    -2.3860     2.7400 c3         0 193       0.152133
      6 N1           3.1740    -2.4540     2.2160 n3         0 193      -0.821867
      7 C4           3.3650    -3.8190     1.7070 c3         0 193       0.139167
      8 C5           3.6670    -3.7660     0.2310 cc         0 193       0.217667
      9 C6           4.5880    -4.5070    -0.4110 cd         0 193      -0.252967
     10 C7           4.5350    -4.1350    -1.7740 cd         0 193      -0.252967
     11 C8           3.5850    -3.1890    -1.8830 cc         0 193       0.217667
     12 C9           3.1740    -2.4920    -3.1550 c3         0 193       0.139167
     13 N2           1.7220    -2.2730    -3.1440 n3         0 193      -0.821867
     14 C10          1.5040    -0.8580    -3.4760 c3         0 193       0.152133
     15 C11          0.0790    -0.6710    -4.0000 c3         0 193       0.176800
     16 N3          -0.4330     0.6200    -3.7250 n3         0 193      -0.751600
     17 C12          0.4330     1.7390    -3.7770 c3         0 193       0.176800
     18 C13          0.0110     2.8490    -2.8120 c3         0 193       0.152133
     19 N4           1.1950     3.6180    -2.4040 n3         0 193      -0.821867
     20 C14          0.7070     4.9080    -1.8970 c3         0 193       0.139167
     21 C15          1.1360     5.0760    -0.4610 cc         0 193       0.217667
     22 C16          1.5650     6.2190     0.1030 cd         0 193      -0.252967
     23 C17          1.8590     5.9230     1.4540 cd         0 193      -0.252967
     24 C18          1.5920     4.6170     1.6340 cc         0 193       0.217667
     25 C19          1.7550     3.8520     2.9230 c3         0 193       0.139167
     26 N5           0.6360     2.9140     3.0760 n3         0 193      -0.821867
     27 O            1.1540     4.1090     0.4700 os         0 193      -0.358467
     28 C20         -1.8330     0.8220    -3.6910 c3         0 193       0.176800
     29 C21         -2.5800    -0.3630    -3.0750 c3         0 193       0.152133
     30 N6          -3.8100     0.1160    -2.4290 n3         0 193      -0.821867
     31 C22         -4.7040    -1.0440    -2.3100 c3         0 193       0.139167
     32 C23         -5.0490    -1.2620    -0.8590 cc         0 193       0.217667
     33 C24         -6.2520    -1.6290    -0.3830 cd         0 193      -0.252967
     34 C25         -6.1270    -1.7170     1.0230 cd         0 193      -0.252967
     35 C26         -4.8550    -1.3990     1.3210 cc         0 193       0.217667
     36 C27         -4.2560    -1.3570     2.7040 c3         0 193       0.139167
     37 N7          -2.8850    -1.8840     2.6580 n3         0 193      -0.821867
     38 C28         -2.0240    -0.8770     3.2940 c3         0 193       0.152133
     39 C29         -0.7360    -1.5430     3.7840 c3         0 193       0.176800
     40 O1          -4.2060    -1.1240     0.1780 os         0 193      -0.358467
     41 O2           3.0630    -2.9690    -0.6650 os         0 193      -0.358467
     42 H            2.0990     1.7070     3.9800 h1         0 193       0.047700
     43 H1           1.5220     1.1340     2.3960 h1         0 193       0.047700
     44 H2           0.2730     0.8500     5.1140 h1         0 193       0.038367
     45 H3          -0.8050     1.0050     3.7150 h1         0 193       0.038367
     46 H4           2.3770    -0.4220     3.3910 h1         0 193       0.038367
     47 H5           1.9610    -1.5370     4.7050 h1         0 193       0.038367
     48 H6           1.5690    -3.3100     3.2670 h1         0 193       0.047700
     49 H7           1.1050    -2.2520     1.9130 h1         0 193       0.047700
     50 H8           3.2100    -1.8390     1.4170 hn         0 193       0.362467
     51 H9           4.1970    -4.2900     2.2310 h1         0 193       0.062367
     52 H10          2.4570    -4.3990     1.8710 h1         0 193       0.062367
     53 H11          5.2430    -5.2440     0.0290 ha         0 193       0.160000
     54 H12          5.1400    -4.5330    -2.5750 ha         0 193       0.160000
     55 H13          3.6860    -1.5320    -3.2250 h1         0 193       0.062367
     56 H14          3.4420    -3.1110    -4.0110 h1         0 193       0.062367
     57 H15          1.3410    -2.8110    -3.9080 hn         0 193       0.362467
     58 H16          1.6460    -0.2490    -2.5830 h1         0 193       0.047700
     59 H17          2.2160    -0.5510    -4.2420 h1         0 193       0.047700
     60 H18          0.0760    -0.8290    -5.0780 h1         0 193       0.038367
     61 H19         -0.5680    -1.4140    -3.5340 h1         0 193       0.038367
     62 H20          1.4430     1.4170    -3.5240 h1         0 193       0.038367
     63 H21          0.4350     2.1370    -4.7920 h1         0 193       0.038367
     64 H22         -0.6990     3.5110    -3.3070 h1         0 193       0.047700
     65 H23         -0.4560     2.4070    -1.9320 h1         0 193       0.047700
     66 H24          1.5990     3.1310    -1.6180 hn         0 193       0.362467
     67 H25          1.1250     5.7150    -2.4980 h1         0 193       0.062367
     68 H26         -0.3810     4.9340    -1.9570 h1         0 193       0.062367
     69 H27          1.6650     7.1790    -0.3820 ha         0 193       0.160000
     70 H28          2.2270     6.6130     2.1990 ha         0 193       0.160000
     71 H29          2.6930     3.2980     2.9000 h1         0 193       0.062367
     72 H30          1.7630     4.5490     3.7610 h1         0 193       0.062367
     73 H31          0.1810     2.8550     2.1780 hn         0 193       0.362467
     74 H32         -2.0470     1.7170    -3.1050 h1         0 193       0.038367
     75 H33         -2.1930     0.9750    -4.7080 h1         0 193       0.038367
     76 H34         -2.8350    -1.0780    -3.8570 h1         0 193       0.047700
     77 H35         -1.9450    -0.8460    -2.3330 h1         0 193       0.047700
     78 H36         -3.5580     0.3860    -1.4900 hn         0 193       0.362467
     79 H37         -5.6160    -0.8590    -2.8770 h1         0 193       0.062367
     80 H38         -4.2050    -1.9300    -2.7020 h1         0 193       0.062367
     81 H39         -7.1430    -1.8200    -0.9620 ha         0 193       0.160000
     82 H40         -6.9030    -1.9880     1.7230 ha         0 193       0.160000
     83 H41         -4.2380    -0.3280     3.0620 h1         0 193       0.062367
     84 H42         -4.8570    -1.9660     3.3790 h1         0 193       0.062367
     85 H43         -2.8670    -2.6980     3.2540 hn         0 193       0.362467
     86 H44         -1.7780    -0.1000     2.5700 h1         0 193       0.047700
     87 H45         -2.5470    -0.4330     4.1400 h1         0 193       0.047700
     88 H46         -0.5250    -2.4090     3.1550 h1         0 193       0.038367
     89 H47         -0.8820    -1.8820     4.8100 h1         0 193       0.038367
@<TRIPOS>BOND
     1     1     2 1   
     2     1    26 1   
     3     1    42 1   
     4     1    43 1   
     5     2     3 1   
     6     2    44 1   
     7     2    45 1   
     8     3     4 1   
     9     3    39 1   
    10     4     5 1   
    11     4    46 1   
    12     4    47 1   
    13     5     6 1   
    14     5    48 1   
    15     5    49 1   
    16     6     7 1   
    17     6    50 1   
    18     7     8 1   
    19     7    51 1   
    20     7    52 1   
    21     8     9 2   
    22     8    41 1   
    23     9    10 1   
    24     9    53 1   
    25    10    11 2   
    26    10    54 1   
    27    11    12 1   
    28    11    41 1   
    29    12    13 1   
    30    12    55 1   
    31    12    56 1   
    32    13    14 1   
    33    13    57 1   
    34    14    15 1   
    35    14    58 1   
    36    14    59 1   
    37    15    16 1   
    38    15    60 1   
    39    15    61 1   
    40    16    17 1   
    41    16    28 1   
    42    17    18 1   
    43    17    62 1   
    44    17    63 1   
    45    18    19 1   
    46    18    64 1   
    47    18    65 1   
    48    19    20 1   
    49    19    66 1   
    50    20    21 1   
    51    20    67 1   
    52    20    68 1   
    53    21    22 2   
    54    21    27 1   
    55    22    23 1   
    56    22    69 1   
    57    23    24 2   
    58    23    70 1   
    59    24    25 1   
    60    24    27 1   
    61    25    26 1   
    62    25    71 1   
    63    25    72 1   
    64    26    73 1   
    65    28    29 1   
    66    28    74 1   
    67    28    75 1   
    68    29    30 1   
    69    29    76 1   
    70    29    77 1   
    71    30    31 1   
    72    30    78 1   
    73    31    32 1   
    74    31    79 1   
    75    31    80 1   
    76    32    33 2   
    77    32    40 1   
    78    33    34 1   
    79    33    81 1   
    80    34    35 2   
    81    34    82 1   
    82    35    36 1   
    83    35    40 1   
    84    36    37 1   
    85    36    83 1   
    86    36    84 1   
    87    37    38 1   
    88    37    85 1   
    89    38    39 1   
    90    38    86 1   
    91    38    87 1   
    92    39    88 1   
    93    39    89 1   
@<TRIPOS>SUBSTRUCTURE
     1 193         1 TEMP              0 ****  ****    0 ROOT
