@<TRIPOS>MOLECULE
101
  126   136     1     0     0
SMALL
bcc


@<TRIPOS>ATOM
      1 C           -9.6590    -2.0910    -1.1080 c3         0 101      -0.077150
      2 C1         -10.0650    -0.9800    -0.1420 c3         0 101      -0.077150
      3 C2          -8.8340    -0.5130     0.6430 c3         0 101      -0.064900
      4 C3          -7.6360    -0.4980    -0.3030 c3         0 101       0.125000
      5 H           -7.9580    -0.0110    -1.2400 h1         0 101       0.042700
      6 N           -6.5850     0.3800     0.2710 n2         0 101      -0.597150
      7 C4          -6.8540     1.5950     0.1160 ce         0 101       0.481300
      8 C5          -6.6210     2.9910     0.2910 ca         0 101      -0.155400
      9 C6          -7.7140     3.7940     0.6820 ca         0 101      -0.082250
     10 C7          -7.5670     5.1460     0.8460 ca         0 101      -0.148000
     11 C8          -6.3390     5.7330     0.6240 ca         0 101      -0.082500
     12 C9          -5.2510     4.9640     0.2380 ca         0 101      -0.094050
     13 C10         -5.3860     3.6090     0.0760 ca         0 101      -0.075500
     14 C11         -3.9330     5.6620     0.0080 c3         0 101       0.373950
     15 O           -3.1250     5.0120    -0.9650 os         0 101      -0.425725
     16 C12         -2.1040     5.9530    -1.3260 c3         0 101       0.139400
     17 C13         -1.2810     6.3260    -0.0880 c3         0 101      -0.187500
     18 C14         -2.2530     6.8000     1.0140 c3         0 101       0.139400
     19 O1          -3.2170     5.7680     1.2410 os         0 101      -0.425725
     20 C15         -0.5430     5.1000     0.4230 c3         0 101       0.139400
     21 O2           0.7480     4.9140    -0.1530 os         0 101      -0.425725
     22 C16          1.4050     6.1660     0.0170 c3         0 101       0.373950
     23 O3           0.8830     7.1090    -0.9290 os         0 101      -0.425725
     24 C17         -0.3740     7.5060    -0.4070 c3         0 101       0.139400
     25 C18          2.9040     6.0960    -0.1250 ca         0 101      -0.094050
     26 C19          3.5950     7.2820    -0.3350 ca         0 101      -0.082500
     27 C20          4.9690     7.2780    -0.4770 ca         0 101      -0.148000
     28 C21          5.6580     6.0940    -0.3870 ca         0 101      -0.082250
     29 C22          4.9780     4.8810    -0.1370 ca         0 101      -0.155400
     30 C23          3.5870     4.9090    -0.0330 ca         0 101      -0.075500
     31 C24          5.7780     3.7060     0.0640 ce         0 101       0.481300
     32 N1           5.8910     2.4650    -0.0130 n2         0 101      -0.597150
     33 C25          7.1870     1.9060     0.4310 c3         0 101       0.125000
     34 H1           7.1390     1.7830     1.5170 h1         0 101       0.042700
     35 C26          8.2720     2.9420     0.1020 c3         0 101      -0.064900
     36 C27          9.6270     2.4500     0.6080 c3         0 101      -0.077150
     37 C28          9.9680     1.1050    -0.0320 c3         0 101      -0.077150
     38 C29          8.8830     0.0780     0.2900 c3         0 101      -0.064900
     39 C30          7.5270     0.5830    -0.2450 c3         0 101       0.125000
     40 H2           7.6120     0.7190    -1.3280 h1         0 101       0.042700
     41 N2           6.5270    -0.4810    -0.0020 n2         0 101      -0.597150
     42 C31          6.9690    -1.6480    -0.1000 ce         0 101       0.481300
     43 C32          6.7050    -3.0620    -0.0490 ca         0 101      -0.155400
     44 C33          7.8270    -3.9220    -0.0470 ca         0 101      -0.082250
     45 C34          7.6640    -5.2830    -0.0450 ca         0 101      -0.148000
     46 C35          6.3950    -5.8200    -0.0420 ca         0 101      -0.082500
     47 C36          5.2780    -4.9920    -0.0160 ca         0 101      -0.094050
     48 C37          5.4320    -3.6300    -0.0110 ca         0 101      -0.075500
     49 C38          3.9310    -5.6620     0.0120 c3         0 101       0.373950
     50 O4           3.1020    -5.3030    -1.0880 os         0 101      -0.425725
     51 C39          2.0870    -6.3160    -1.1590 c3         0 101       0.139400
     52 C40          1.2880    -6.3360     0.1490 c3         0 101      -0.187500
     53 C41          2.2810    -6.4790     1.3230 c3         0 101       0.139400
     54 O5           3.2430    -5.4190     1.2390 os         0 101      -0.425725
     55 C42          0.5530    -5.0160     0.3160 c3         0 101       0.139400
     56 O6          -0.7490    -5.0030    -0.2620 os         0 101      -0.425725
     57 C43         -1.4060    -6.1490     0.2830 c3         0 101       0.373950
     58 O7          -0.9080    -7.3270    -0.3590 os         0 101      -0.425725
     59 C44          0.3810    -7.5570     0.1810 c3         0 101       0.139400
     60 C45         -2.9050    -6.0650     0.1380 ca         0 101      -0.094050
     61 C46         -3.6390    -7.2330     0.0080 ca         0 101      -0.082500
     62 C47         -5.0160    -7.1810    -0.1210 ca         0 101      -0.148000
     63 C48         -5.6560    -5.9670    -0.1210 ca         0 101      -0.082250
     64 C49         -4.9250    -4.7670     0.0170 ca         0 101      -0.155400
     65 C50         -3.5370    -4.8470     0.1500 ca         0 101      -0.075500
     66 C51         -5.6330    -3.5320    -0.0050 ce         0 101       0.481300
     67 N3          -6.1820    -2.4800     0.2700 n2         0 101      -0.597150
     68 C52         -7.2050    -1.9270    -0.6260 c3         0 101       0.125000
     69 C53         -8.4350    -2.8410    -0.5810 c3         0 101      -0.064900
     70 H3         -10.4880    -2.7900    -1.2210 hc         0 101       0.042075
     71 H4          -9.4230    -1.6550    -2.0790 hc         0 101       0.042075
     72 H5         -10.4760    -0.1410    -0.7040 hc         0 101       0.042075
     73 H6         -10.8160    -1.3570     0.5510 hc         0 101       0.042075
     74 H7          -9.0070     0.4900     1.0330 hc         0 101       0.049700
     75 H8          -8.6420    -1.2020     1.4660 hc         0 101       0.049700
     76 H9          -7.7580     1.5710    -0.4750 h4         0 101      -0.028700
     77 H10         -8.6780     3.3370     0.8540 ha         0 101       0.147250
     78 H11         -8.4090     5.7500     1.1480 ha         0 101       0.135500
     79 H12         -6.2230     6.8000     0.7510 ha         0 101       0.148000
     80 H13         -4.5330     3.0160    -0.2200 ha         0 101       0.149500
     81 H14         -4.1480     6.6780    -0.3510 h2         0 101       0.044450
     82 H15         -1.4500     5.5080    -2.0750 h1         0 101       0.060200
     83 H16         -2.5670     6.8500    -1.7370 h1         0 101       0.060200
     84 H17         -1.6990     6.9940     1.9330 h1         0 101       0.060200
     85 H18         -2.7590     7.7100     0.6910 h1         0 101       0.060200
     86 H19         -0.4310     5.1880     1.5040 h1         0 101       0.060200
     87 H20         -1.1480     4.2180     0.2120 h1         0 101       0.060200
     88 H21          1.1860     6.5170     1.0350 h2         0 101       0.044450
     89 H22         -0.8720     8.1440    -1.1370 h1         0 101       0.060200
     90 H23         -0.2110     8.0800     0.5050 h1         0 101       0.060200
     91 H24          3.0540     8.2150    -0.3890 ha         0 101       0.148000
     92 H25          5.4980     8.2010    -0.6590 ha         0 101       0.135500
     93 H26          6.7310     6.0900    -0.5100 ha         0 101       0.147250
     94 H27          3.0420     3.9890     0.1210 ha         0 101       0.149500
     95 H28          6.7160     4.0580     0.4660 h4         0 101      -0.028700
     96 H29          8.3190     3.0870    -0.9770 hc         0 101       0.049700
     97 H30          8.0260     3.8880     0.5840 hc         0 101       0.049700
     98 H31         10.3960     3.1790     0.3500 hc         0 101       0.042075
     99 H32          9.5890     2.3350     1.6920 hc         0 101       0.042075
    100 H33         10.0410     1.2270    -1.1130 hc         0 101       0.042075
    101 H34         10.9250     0.7530     0.3550 hc         0 101       0.042075
    102 H35          9.1290    -0.8720    -0.1830 hc         0 101       0.049700
    103 H36          8.8200    -0.0580     1.3700 hc         0 101       0.049700
    104 H37          8.0210    -1.5500    -0.3230 h4         0 101      -0.028700
    105 H38          8.8220    -3.5030    -0.0470 ha         0 101       0.147250
    106 H39          8.5270    -5.9320    -0.0470 ha         0 101       0.135500
    107 H40          6.2670    -6.8920    -0.0580 ha         0 101       0.148000
    108 H41          4.5610    -2.9920     0.0230 ha         0 101       0.149500
    109 H42          4.1160    -6.7500    -0.0500 h2         0 101       0.044450
    110 H43          1.4160    -6.1000    -1.9900 h1         0 101       0.060200
    111 H44          2.5540    -7.2880    -1.3140 h1         0 101       0.060200
    112 H45          1.7420    -6.4090     2.2690 h1         0 101       0.060200
    113 H46          2.7890    -7.4410     1.2580 h1         0 101       0.060200
    114 H47          0.4620    -4.8010     1.3810 h1         0 101       0.060200
    115 H48          1.1460    -4.2270    -0.1460 h1         0 101       0.060200
    116 H49         -1.1710    -6.1880     1.3520 h2         0 101       0.044450
    117 H50          0.8570    -8.3580    -0.3840 h1         0 101       0.060200
    118 H51          0.2720    -7.8820     1.2160 h1         0 101       0.060200
    119 H52         -3.1340    -8.1880     0.0060 ha         0 101       0.148000
    120 H53         -5.5850    -8.0940    -0.2210 ha         0 101       0.135500
    121 H54         -6.7300    -5.9290    -0.2290 ha         0 101       0.147250
    122 H55         -2.9560    -3.9440     0.2650 ha         0 101       0.149500
    123 H56         -5.8400    -3.5160    -1.0650 h4         0 101      -0.028700
    124 H57         -6.7980    -1.9640    -1.6420 h1         0 101       0.042700
    125 H58         -8.6190    -3.1500     0.4470 hc         0 101       0.049700
    126 H59         -8.2530    -3.7220    -1.1960 hc         0 101       0.049700
@<TRIPOS>BOND
     1     1     2 1   
     2     1    69 1   
     3     1    70 1   
     4     1    71 1   
     5     2     3 1   
     6     2    72 1   
     7     2    73 1   
     8     3     4 1   
     9     3    74 1   
    10     3    75 1   
    11     4     5 1   
    12     4     6 1   
    13     4    68 1   
    14     6     7 2   
    15     7     8 1   
    16     7    76 1   
    17     8     9 ar  
    18     8    13 ar  
    19     9    10 ar  
    20     9    77 1   
    21    10    11 ar  
    22    10    78 1   
    23    11    12 ar  
    24    11    79 1   
    25    12    13 ar  
    26    12    14 1   
    27    13    80 1   
    28    14    15 1   
    29    14    19 1   
    30    14    81 1   
    31    15    16 1   
    32    16    17 1   
    33    16    82 1   
    34    16    83 1   
    35    17    18 1   
    36    17    20 1   
    37    17    24 1   
    38    18    19 1   
    39    18    84 1   
    40    18    85 1   
    41    20    21 1   
    42    20    86 1   
    43    20    87 1   
    44    21    22 1   
    45    22    23 1   
    46    22    25 1   
    47    22    88 1   
    48    23    24 1   
    49    24    89 1   
    50    24    90 1   
    51    25    26 ar  
    52    25    30 ar  
    53    26    27 ar  
    54    26    91 1   
    55    27    28 ar  
    56    27    92 1   
    57    28    29 ar  
    58    28    93 1   
    59    29    30 ar  
    60    29    31 1   
    61    30    94 1   
    62    31    32 2   
    63    31    95 1   
    64    32    33 1   
    65    33    34 1   
    66    33    35 1   
    67    33    39 1   
    68    35    36 1   
    69    35    96 1   
    70    35    97 1   
    71    36    37 1   
    72    36    98 1   
    73    36    99 1   
    74    37    38 1   
    75    37   100 1   
    76    37   101 1   
    77    38    39 1   
    78    38   102 1   
    79    38   103 1   
    80    39    40 1   
    81    39    41 1   
    82    41    42 2   
    83    42    43 1   
    84    42   104 1   
    85    43    44 ar  
    86    43    48 ar  
    87    44    45 ar  
    88    44   105 1   
    89    45    46 ar  
    90    45   106 1   
    91    46    47 ar  
    92    46   107 1   
    93    47    48 ar  
    94    47    49 1   
    95    48   108 1   
    96    49    50 1   
    97    49    54 1   
    98    49   109 1   
    99    50    51 1   
   100    51    52 1   
   101    51   110 1   
   102    51   111 1   
   103    52    53 1   
   104    52    55 1   
   105    52    59 1   
   106    53    54 1   
   107    53   112 1   
   108    53   113 1   
   109    55    56 1   
   110    55   114 1   
   111    55   115 1   
   112    56    57 1   
   113    57    58 1   
   114    57    60 1   
   115    57   116 1   
   116    58    59 1   
   117    59   117 1   
   118    59   118 1   
   119    60    61 ar  
   120    60    65 ar  
   121    61    62 ar  
   122    61   119 1   
   123    62    63 ar  
   124    62   120 1   
   125    63    64 ar  
   126    63   121 1   
   127    64    65 ar  
   128    64    66 1   
   129    65   122 1   
   130    66    67 2   
   131    66   123 1   
   132    67    68 1   
   133    68    69 1   
   134    68   124 1   
   135    69   125 1   
   136    69   126 1   
@<TRIPOS>SUBSTRUCTURE
     1 101         1 TEMP              0 ****  ****    0 ROOT
