@<TRIPOS>MOLECULE
ASB
  108   112     1     0     0
SMALL
bcc


@<TRIPOS>ATOM
      1 C            1.5110    -5.6970    -1.7870 c3         0 ASB       0.112700
      2 O            0.9110    -6.4160    -0.7080 os         0 ASB      -0.367900
      3 C1          -0.1740    -5.7000    -0.3120 ca         0 ASB       0.127350
      4 C2          -1.4090    -5.9380    -0.8930 ca         0 ASB      -0.113800
      5 C3          -1.5480    -6.9880    -1.9650 c3         0 ASB      -0.062800
      6 C4          -2.5140    -5.2120    -0.4870 ca         0 ASB       0.127350
      7 O1          -3.7280    -5.4480    -1.0500 os         0 ASB      -0.367900
      8 C5          -4.3600    -6.4580    -0.2600 c3         0 ASB       0.112700
      9 C6          -2.3800    -4.2380     0.5000 ca         0 ASB      -0.148800
     10 C7          -3.5910    -3.4800     0.9620 c3         0 ASB       0.136550
     11 N           -3.4910    -2.0490     0.5760 n          0 ASB      -0.536900
     12 C8          -4.6870    -1.4540     0.3780 c          0 ASB       0.664450
     13 O2          -5.6580    -2.1810     0.3040 o          0 ASB      -0.564100
     14 C9          -4.9270    -0.0110     0.2450 ca         0 ASB      -0.173350
     15 C10         -3.9240     0.9530     0.3450 ca         0 ASB       0.015500
     16 C11         -4.2830     2.2970     0.2430 ca         0 ASB      -0.173350
     17 C12         -5.6270     2.6210     0.0020 ca         0 ASB       0.097650
     18 C13         -6.0260     4.0670    -0.1360 c3         0 ASB      -0.103300
     19 N1          -6.5420     1.6880    -0.1050 na         0 ASB       0.006900
     20 C14         -7.9310     2.0770    -0.3590 c3         0 ASB      -0.038900
     21 C15         -6.2460     0.4150     0.0090 ca         0 ASB       0.097650
     22 C16         -7.3430    -0.6120    -0.1140 c3         0 ASB      -0.103300
     23 C17         -3.3350     3.4060     0.4170 c          0 ASB       0.664450
     24 O3          -3.7890     4.5330     0.3800 o          0 ASB      -0.564100
     25 N2          -2.0030     3.2850     0.6140 n          0 ASB      -0.536900
     26 C18         -1.3570     4.5120     1.1490 c3         0 ASB       0.136550
     27 C19          0.0020     4.6940     0.5320 ca         0 ASB      -0.148800
     28 C20          0.1780     5.6160    -0.4950 ca         0 ASB       0.127350
     29 O4          -0.8830     6.3340    -0.9500 os         0 ASB      -0.367900
     30 C21         -0.9400     7.5280    -0.1660 c3         0 ASB       0.112700
     31 C22          1.4300     5.8050    -1.0530 ca         0 ASB      -0.113800
     32 C23          1.6160     6.7980    -2.1720 c3         0 ASB      -0.062800
     33 C24          2.5140     5.0800    -0.5810 ca         0 ASB       0.127350
     34 O5           3.7460     5.2670    -1.1220 os         0 ASB      -0.367900
     35 C25          4.3750     6.3040    -0.3650 c3         0 ASB       0.112700
     36 C26          2.3370     4.1610     0.4450 ca         0 ASB      -0.148800
     37 C27          3.5210     3.4040     0.9770 c3         0 ASB       0.136550
     38 N3           3.4480     1.9780     0.5800 n          0 ASB      -0.536900
     39 C28          4.6590     1.3900     0.4160 c          0 ASB       0.664450
     40 O6           5.6290     2.1210     0.3680 o          0 ASB      -0.564100
     41 C29          4.8980    -0.0510     0.2940 ca         0 ASB      -0.173350
     42 C30          6.2130    -0.4840     0.0500 ca         0 ASB       0.097650
     43 C31          7.3110     0.5370    -0.0980 c3         0 ASB      -0.103300
     44 N4           6.5030    -1.7590    -0.0520 na         0 ASB       0.006900
     45 C32          7.8880    -2.1550    -0.3180 c3         0 ASB      -0.038900
     46 C33          5.5870    -2.6890     0.0800 ca         0 ASB       0.097650
     47 C34          5.9820    -4.1380    -0.0410 c3         0 ASB      -0.103300
     48 C35          4.2500    -2.3600     0.3300 ca         0 ASB      -0.173350
     49 C36          3.8940    -1.0110     0.4190 ca         0 ASB       0.015500
     50 C37          3.2970    -3.4540     0.5400 c          0 ASB       0.664450
     51 O7           3.7460    -4.5830     0.5680 o          0 ASB      -0.564100
     52 N5           1.9590    -3.3150     0.7050 n          0 ASB      -0.536900
     53 C38          1.2990    -4.4930     1.3160 c3         0 ASB       0.136550
     54 C39         -0.0430    -4.7350     0.6760 ca         0 ASB      -0.148800
     55 C40         -1.1440    -3.9940     1.0640 ca         0 ASB      -0.073000
     56 C41          1.0820     3.9630     0.9890 ca         0 ASB      -0.073000
     57 H            2.3900    -6.2360    -2.1390 h1         0 ASB       0.053533
     58 H1           0.7930    -5.5990    -2.6010 h1         0 ASB       0.053533
     59 H2           1.8060    -4.7050    -1.4430 h1         0 ASB       0.053533
     60 H3          -1.7830    -7.9480    -1.5060 hc         0 ASB       0.059533
     61 H4          -2.3500    -6.7060    -2.6480 hc         0 ASB       0.059533
     62 H5          -0.6120    -7.0690    -2.5180 hc         0 ASB       0.059533
     63 H6          -5.3430    -6.6820    -0.6750 h1         0 ASB       0.053533
     64 H7          -3.7490    -7.3600    -0.2660 h1         0 ASB       0.053533
     65 H8          -4.4710    -6.1010     0.7640 h1         0 ASB       0.053533
     66 H9          -4.4810    -3.9140     0.5060 h1         0 ASB       0.087700
     67 H10         -3.6700    -3.5550     2.0460 h1         0 ASB       0.087700
     68 H11         -2.6450    -1.5850     0.4760 hn         0 ASB       0.324750
     69 H12         -2.8940     0.6650     0.4970 ha         0 ASB       0.188500
     70 H13         -5.4620     4.5240    -0.9490 hc         0 ASB       0.104117
     71 H14         -7.0920     4.1310    -0.3540 hc         0 ASB       0.104117
     72 H15         -5.8130     4.5940     0.7950 hc         0 ASB       0.104117
     73 H16         -8.1190     2.0720    -1.4330 h1         0 ASB       0.102867
     74 H17         -8.6020     1.3710     0.1300 h1         0 ASB       0.102867
     75 H18         -8.1060     3.0780     0.0360 h1         0 ASB       0.102867
     76 H19         -7.3320    -1.0370    -1.1170 hc         0 ASB       0.104117
     77 H20         -7.1830    -1.4040     0.6180 hc         0 ASB       0.104117
     78 H21         -8.3070    -0.1370     0.0690 hc         0 ASB       0.104117
     79 H22         -1.5120     2.4700     0.4230 hn         0 ASB       0.324750
     80 H23         -1.9780     5.3770     0.9170 h1         0 ASB       0.087700
     81 H24         -1.2540     4.4230     2.2300 h1         0 ASB       0.087700
     82 H25         -1.7800     8.1390    -0.4970 h1         0 ASB       0.053533
     83 H26         -1.0720     7.2670     0.8840 h1         0 ASB       0.053533
     84 H27         -0.0130     8.0880    -0.2890 h1         0 ASB       0.053533
     85 H28          1.8560     7.7760    -1.7540 hc         0 ASB       0.059533
     86 H29          2.4290     6.4690    -2.8180 hc         0 ASB       0.059533
     87 H30          0.6960     6.8670    -2.7520 hc         0 ASB       0.059533
     88 H31          5.3720     6.4900    -0.7640 h1         0 ASB       0.053533
     89 H32          3.7810     7.2150    -0.4320 h1         0 ASB       0.053533
     90 H33          4.4530     5.9960     0.6770 h1         0 ASB       0.053533
     91 H34          4.4360     3.8410     0.5780 h1         0 ASB       0.087700
     92 H35          3.5340     3.4740     2.0650 h1         0 ASB       0.087700
     93 H36          2.6100     1.5070     0.4500 hn         0 ASB       0.324750
     94 H37          7.6530     0.8490     0.8890 hc         0 ASB       0.104117
     95 H38          8.1440     0.0980    -0.6480 hc         0 ASB       0.104117
     96 H39          6.9320     1.4020    -0.6410 hc         0 ASB       0.104117
     97 H40          8.3970    -2.3550     0.6250 h1         0 ASB       0.102867
     98 H41          7.8960    -3.0550    -0.9340 h1         0 ASB       0.102867
     99 H42          8.4010    -1.3500    -0.8450 h1         0 ASB       0.102867
    100 H43          6.1170    -4.5620     0.9540 hc         0 ASB       0.104117
    101 H44          5.1990    -4.6860    -0.5660 hc         0 ASB       0.104117
    102 H45          6.9160    -4.2150    -0.5980 hc         0 ASB       0.104117
    103 H46          2.8660    -0.7190     0.5800 ha         0 ASB       0.188500
    104 H47          1.4760    -2.5140     0.4470 hn         0 ASB       0.324750
    105 H48          1.9280    -5.3720     1.1770 h1         0 ASB       0.087700
    106 H49          1.1590    -4.3160     2.3830 h1         0 ASB       0.087700
    107 H50         -1.0350    -3.2170     1.8070 ha         0 ASB       0.156500
    108 H51          0.9440     3.2330     1.7730 ha         0 ASB       0.156500
@<TRIPOS>BOND
     1     1     2 1   
     2     1    57 1   
     3     1    58 1   
     4     1    59 1   
     5     2     3 1   
     6     3     4 ar  
     7     3    54 ar  
     8     4     5 1   
     9     4     6 ar  
    10     5    60 1   
    11     5    61 1   
    12     5    62 1   
    13     6     7 1   
    14     6     9 ar  
    15     7     8 1   
    16     8    63 1   
    17     8    64 1   
    18     8    65 1   
    19     9    10 1   
    20     9    55 ar  
    21    10    11 1   
    22    10    66 1   
    23    10    67 1   
    24    11    12 1   
    25    11    68 1   
    26    12    13 2   
    27    12    14 1   
    28    14    15 ar  
    29    14    21 ar  
    30    15    16 ar  
    31    15    69 1   
    32    16    17 ar  
    33    16    23 1   
    34    17    18 1   
    35    17    19 2   
    36    18    70 1   
    37    18    71 1   
    38    18    72 1   
    39    19    20 1   
    40    19    21 1   
    41    20    73 1   
    42    20    74 1   
    43    20    75 1   
    44    21    22 1   
    45    22    76 1   
    46    22    77 1   
    47    22    78 1   
    48    23    24 2   
    49    23    25 1   
    50    25    26 1   
    51    25    79 1   
    52    26    27 1   
    53    26    80 1   
    54    26    81 1   
    55    27    28 ar  
    56    27    56 ar  
    57    28    29 1   
    58    28    31 ar  
    59    29    30 1   
    60    30    82 1   
    61    30    83 1   
    62    30    84 1   
    63    31    32 1   
    64    31    33 ar  
    65    32    85 1   
    66    32    86 1   
    67    32    87 1   
    68    33    34 1   
    69    33    36 ar  
    70    34    35 1   
    71    35    88 1   
    72    35    89 1   
    73    35    90 1   
    74    36    37 1   
    75    36    56 ar  
    76    37    38 1   
    77    37    91 1   
    78    37    92 1   
    79    38    39 1   
    80    38    93 1   
    81    39    40 2   
    82    39    41 1   
    83    41    42 ar  
    84    41    49 ar  
    85    42    43 1   
    86    42    44 2   
    87    43    94 1   
    88    43    95 1   
    89    43    96 1   
    90    44    45 1   
    91    44    46 1   
    92    45    97 1   
    93    45    98 1   
    94    45    99 1   
    95    46    47 1   
    96    46    48 ar  
    97    47   100 1   
    98    47   101 1   
    99    47   102 1   
   100    48    49 ar  
   101    48    50 1   
   102    49   103 1   
   103    50    51 2   
   104    50    52 1   
   105    52    53 1   
   106    52   104 1   
   107    53    54 1   
   108    53   105 1   
   109    53   106 1   
   110    54    55 ar  
   111    55   107 1   
   112    56   108 1   
@<TRIPOS>SUBSTRUCTURE
     1 ASB         1 TEMP              0 ****  ****    0 ROOT
