@<TRIPOS>MOLECULE
142
   76    78     1     0     0
SMALL
bcc


@<TRIPOS>ATOM
      1 C           -0.1240     5.4250     0.4180 c3         0 142       0.093600
      2 N           -0.2470     3.9960     0.0990 n4         0 142      -0.598800
      3 C1          -0.3390     3.2230     1.3440 c3         0 142       0.093600
      4 C2          -1.4570     3.7770    -0.7050 c3         0 142       0.085800
      5 C3          -2.6740     3.6910     0.2180 c3         0 142       0.080000
      6 N1          -3.2760     2.3480     0.0920 n          0 142      -0.576900
      7 C4          -4.6320     2.2980    -0.0040 c          0 142       0.567600
      8 O           -5.2860     3.3210    -0.0150 o          0 142      -0.572100
      9 C5          -5.3030     0.9790    -0.0960 ca         0 142       0.338800
     10 C6          -6.6920     0.9200    -0.2200 ca         0 142      -0.148300
     11 C7          -7.3120    -0.3160    -0.3030 ca         0 142      -0.089000
     12 C8          -6.5260    -1.4560    -0.2580 ca         0 142      -0.148300
     13 C9          -5.1420    -1.3250    -0.1310 ca         0 142       0.338800
     14 N2          -4.5800    -0.1290    -0.0580 nb         0 142      -0.655000
     15 C10         -4.2940    -2.5400    -0.0730 c          0 142       0.567600
     16 O1          -4.7990    -3.6440    -0.1200 o          0 142      -0.572100
     17 N3          -2.9440    -2.4050     0.0340 n          0 142      -0.576900
     18 C11         -2.1620    -3.6540     0.1220 c3         0 142       0.080000
     19 C12         -0.8700    -3.4860    -0.6810 c3         0 142       0.085800
     20 N4           0.2590    -4.0240     0.0900 n4         0 142      -0.598800
     21 C13          0.3390    -3.3350     1.3860 c3         0 142       0.093600
     22 C14          0.0590    -5.4620     0.3120 c3         0 142       0.093600
     23 C15          1.5060    -3.8110    -0.6560 c3         0 142       0.085800
     24 C16          2.6710    -3.6740     0.3270 c3         0 142       0.080000
     25 N5           3.2710    -2.3340     0.1740 n          0 142      -0.576900
     26 C17          4.6230    -2.2870     0.0260 c          0 142       0.567600
     27 O2           5.2730    -3.3120    -0.0060 o          0 142      -0.572100
     28 C18          5.2930    -0.9710    -0.0960 ca         0 142       0.338800
     29 N6           4.5760     0.1400    -0.0340 nb         0 142      -0.655000
     30 C19          5.1380     1.3340    -0.1350 ca         0 142       0.338800
     31 C20          6.5160     1.4600    -0.3170 ca         0 142      -0.148300
     32 C21          7.2970     0.3170    -0.3900 ca         0 142      -0.089000
     33 C22          6.6760    -0.9160    -0.2770 ca         0 142      -0.148300
     34 C23          4.2970     2.5520    -0.0510 c          0 142       0.567600
     35 O3           4.8030     3.6540    -0.1300 o          0 142      -0.572100
     36 N7           2.9530     2.4220     0.1150 n          0 142      -0.576900
     37 C24          2.1770     3.6740     0.2210 c3         0 142       0.080000
     38 C25          0.9320     3.5610    -0.6620 c3         0 142       0.085800
     39 H            0.7740     5.5880     1.0150 hx         0 142       0.095367
     40 H1          -0.0550     5.9990    -0.5060 hx         0 142       0.095367
     41 H2          -0.9980     5.7480     0.9830 hx         0 142       0.095367
     42 H3          -1.0220     3.7220     2.0320 hx         0 142       0.095367
     43 H4          -0.7130     2.2220     1.1240 hx         0 142       0.095367
     44 H5           0.6480     3.1490     1.8010 hx         0 142       0.095367
     45 H6          -1.5860     4.6060    -1.4010 hx         0 142       0.123700
     46 H7          -1.3580     2.8460    -1.2640 hx         0 142       0.123700
     47 H8          -2.3620     3.8550     1.2490 h1         0 142       0.083200
     48 H9          -3.4040     4.4470    -0.0700 h1         0 142       0.083200
     49 H10         -2.7330     1.5450     0.0770 hn         0 142       0.328500
     50 H11         -7.2770     1.8270    -0.2500 ha         0 142       0.186000
     51 H12         -8.3850    -0.3900    -0.4010 ha         0 142       0.180000
     52 H13         -6.9790    -2.4350    -0.3200 ha         0 142       0.186000
     53 H14         -2.5190    -1.5330     0.0530 hn         0 142       0.328500
     54 H15         -1.9190    -3.8600     1.1640 h1         0 142       0.083200
     55 H16         -2.7430    -4.4780    -0.2900 h1         0 142       0.083200
     56 H17         -0.9550    -4.0250    -1.6240 hx         0 142       0.123700
     57 H18         -0.7020    -2.4280    -0.8810 hx         0 142       0.123700
     58 H19         -0.6640    -3.2050     1.7910 hx         0 142       0.095367
     59 H20          0.9350    -3.9300     2.0770 hx         0 142       0.095367
     60 H21          0.8060    -2.3590     1.2500 hx         0 142       0.095367
     61 H22         -0.0000    -5.9730    -0.6490 hx         0 142       0.095367
     62 H23          0.8970    -5.8610     0.8840 hx         0 142       0.095367
     63 H24         -0.8670    -5.6200     0.8650 hx         0 142       0.095367
     64 H25          1.6850    -4.6610    -1.3150 hx         0 142       0.123700
     65 H26          1.4240    -2.9010    -1.2500 hx         0 142       0.123700
     66 H27          2.3040    -3.7950     1.3470 h1         0 142       0.083200
     67 H28          3.4200    -4.4360     0.1140 h1         0 142       0.083200
     68 H29          2.7300    -1.5290     0.1780 hn         0 142       0.328500
     69 H30          6.9690     2.4370    -0.4010 ha         0 142       0.186000
     70 H31          8.3650     0.3870    -0.5310 ha         0 142       0.180000
     71 H32          7.2560    -1.8260    -0.3280 ha         0 142       0.186000
     72 H33          2.5260     1.5520     0.1620 hn         0 142       0.328500
     73 H34          1.8790     3.8330     1.2570 h1         0 142       0.083200
     74 H35          2.7890     4.5120    -0.1170 h1         0 142       0.083200
     75 H36          0.8010     2.5250    -0.9740 hx         0 142       0.123700
     76 H37          1.0510     4.1940    -1.5410 hx         0 142       0.123700
@<TRIPOS>BOND
     1     1     2 1   
     2     1    39 1   
     3     1    40 1   
     4     1    41 1   
     5     2     3 1   
     6     2     4 1   
     7     2    38 1   
     8     3    42 1   
     9     3    43 1   
    10     3    44 1   
    11     4     5 1   
    12     4    45 1   
    13     4    46 1   
    14     5     6 1   
    15     5    47 1   
    16     5    48 1   
    17     6     7 1   
    18     6    49 1   
    19     7     8 2   
    20     7     9 1   
    21     9    10 ar  
    22     9    14 ar  
    23    10    11 ar  
    24    10    50 1   
    25    11    12 ar  
    26    11    51 1   
    27    12    13 ar  
    28    12    52 1   
    29    13    14 ar  
    30    13    15 1   
    31    15    16 2   
    32    15    17 1   
    33    17    18 1   
    34    17    53 1   
    35    18    19 1   
    36    18    54 1   
    37    18    55 1   
    38    19    20 1   
    39    19    56 1   
    40    19    57 1   
    41    20    21 1   
    42    20    22 1   
    43    20    23 1   
    44    21    58 1   
    45    21    59 1   
    46    21    60 1   
    47    22    61 1   
    48    22    62 1   
    49    22    63 1   
    50    23    24 1   
    51    23    64 1   
    52    23    65 1   
    53    24    25 1   
    54    24    66 1   
    55    24    67 1   
    56    25    26 1   
    57    25    68 1   
    58    26    27 2   
    59    26    28 1   
    60    28    29 ar  
    61    28    33 ar  
    62    29    30 ar  
    63    30    31 ar  
    64    30    34 1   
    65    31    32 ar  
    66    31    69 1   
    67    32    33 ar  
    68    32    70 1   
    69    33    71 1   
    70    34    35 2   
    71    34    36 1   
    72    36    37 1   
    73    36    72 1   
    74    37    38 1   
    75    37    73 1   
    76    37    74 1   
    77    38    75 1   
    78    38    76 1   
@<TRIPOS>SUBSTRUCTURE
     1 142         1 TEMP              0 ****  ****    0 ROOT
