@<TRIPOS>MOLECULE
26
  110   115     1     0     0
SMALL
bcc


@<TRIPOS>ATOM
      1 O1           3.7770    -3.4580    -1.9700 o          1 26       -0.612600
      2 C1           3.8310    -2.4580    -1.2600 c          1 26        0.660700
      3 N1           4.1330    -2.5470     0.0700 n          1 26       -0.548400
      4 C2           4.1200    -1.5180     1.0920 c3         1 26        0.094500
      5 C3           4.8490    -1.9560     2.3660 c3         1 26       -0.101900
      6 C4           4.2020    -3.1670     3.0510 c3         1 26        0.169800
      7 N2           4.3870    -4.3720     2.2400 n3         1 26       -0.849200
      8 C5           3.5750    -5.4870     2.7270 c3         1 26        0.169800
      9 C6           3.7760    -6.7280     1.8510 c3         1 26       -0.076900
     10 C7           3.5090    -6.5250     0.3530 c3         1 26       -0.081400
     11 C8           2.0750    -6.0890     0.0420 c3         1 26        0.164300
     12 N3           1.9220    -5.9490    -1.4030 n3         1 26       -0.830200
     13 C9           0.5350    -5.8780    -1.8510 c3         1 26        0.166300
     14 C10         -0.3390    -4.7660    -1.2650 c3         1 26       -0.118400
     15 C11          0.1550    -3.3620    -1.6120 c3         1 26        0.086000
     16 N4          -0.8080    -2.3360    -1.1970 n          1 26       -0.481900
     17 C12         -1.8490    -2.0590    -2.0890 c          1 26        0.723350
     18 O2          -1.9860    -2.6120    -3.1770 o          1 26       -0.607250
     19 C13         -2.8380    -1.0550    -1.6120 ca         1 26       -0.110600
     20 C14         -3.8850    -0.7100    -2.3860 ca         1 26       -0.062250
     21 C15         -4.8930     0.2320    -1.9270 ca         1 26       -0.062250
     22 C16         -4.8190     0.8060    -0.7110 ca         1 26       -0.110600
     23 C17         -5.8930     1.7230    -0.2430 c          1 26        0.723350
     24 O3          -6.8660     1.9690    -0.9540 o          1 26       -0.607250
     25 N5          -5.7150     2.2380     1.0420 n          1 26       -0.481900
     26 C18         -6.7460     3.1420     1.5380 c3         1 26        0.086000
     27 C19         -6.7320     4.5390     0.9060 c3         1 26       -0.118400
     28 C20         -5.4080     5.2950     1.0430 c3         1 26        0.166300
     29 N6          -4.4250     4.8310     0.0580 n3         1 26       -0.830200
     30 C21         -3.1910     5.6150     0.1480 c3         1 26        0.164300
     31 C22         -2.2790     5.2960    -1.0390 c3         1 26       -0.081400
     32 C23         -1.0630     6.2280    -1.1100 c3         1 26       -0.076900
     33 C24         -0.0350     6.0420     0.0100 c3         1 26        0.169800
     34 N7           0.5810     4.7200    -0.0750 n3         1 26       -0.849200
     35 C25          1.6540     4.5520     0.9030 c3         1 26        0.169800
     36 C26          2.4650     3.2750     0.6470 c3         1 26       -0.101900
     37 C27          1.6500     1.9830     0.7310 c3         1 26        0.094500
     38 N8           0.6900     1.8500    -0.3550 n          1 26       -0.548400
     39 C28          0.9820     1.6210    -1.6780 c          1 26        0.660700
     40 O4           0.2560     2.0840    -2.5530 o          1 26       -0.612600
     41 C29          2.1690     0.8260    -2.0630 ca         1 26       -0.137100
     42 C30          2.9290     1.2430    -3.1630 ca         1 26       -0.074000
     43 C31          4.0060     0.4710    -3.6060 ca         1 26       -0.143000
     44 C32          4.3140    -0.7270    -2.9600 ca         1 26       -0.074000
     45 C33          3.5540    -1.1400    -1.8620 ca         1 26       -0.137100
     46 C34          2.4730    -0.3740    -1.4200 ca         1 26       -0.083000
     47 C35         -4.6160     2.0000     1.8800 c          1 26        0.723350
     48 O5          -4.4840     2.4950     2.9990 o          1 26       -0.607250
     49 C36         -3.5710     1.0650     1.4040 ca         1 26       -0.110600
     50 C37         -2.4880     0.7340     2.2290 ca         1 26       -0.062250
     51 C38         -1.5330    -0.1930     1.7980 ca         1 26       -0.062250
     52 C39         -1.6500    -0.7870     0.5340 ca         1 26       -0.110600
     53 C40         -0.6600    -1.7930     0.0860 c          1 26        0.723350
     54 O6           0.2420    -2.1040     0.8620 o          1 26       -0.607250
     55 C41         -2.7130    -0.4420    -0.2920 ca         1 26       -0.006000
     56 C42         -3.6810     0.4820     0.1480 ca         1 26       -0.006000
     57 H1           4.1640    -3.5050     0.4210 hn         1 26        0.335500
     58 H2           4.5870    -0.6140     0.6880 h1         1 26        0.047700
     59 H3           3.0750    -1.2890     1.3210 h1         1 26        0.047700
     60 H4           5.9010    -2.1720     2.1390 hc         1 26        0.051200
     61 H5           4.8430    -1.1160     3.0710 hc         1 26        0.051200
     62 H6           3.1360    -2.9610     3.2040 h1         1 26        0.030450
     63 H7           4.6590    -3.3140     4.0360 h1         1 26        0.030450
     64 H8           5.3720    -4.6420     2.2460 hn         1 26        0.366800
     65 H9           2.5150    -5.2120     2.7350 h1         1 26        0.028950
     66 H10          3.8560    -5.7340     3.7580 h1         1 26        0.028950
     67 H11          3.1270    -7.5290     2.2260 hc         1 26        0.042450
     68 H12          4.8070    -7.0870     1.9700 hc         1 26        0.042450
     69 H13          3.7140    -7.4760    -0.1570 hc         1 26        0.053950
     70 H14          4.2240    -5.8010    -0.0580 hc         1 26        0.053950
     71 H15          1.8510    -5.1360     0.5310 h1         1 26        0.026200
     72 H16          1.3840    -6.8460     0.4310 h1         1 26        0.026200
     73 H17          2.4690    -5.1410    -1.7300 hn         1 26        0.373300
     74 H18          0.0540    -6.8420    -1.6430 h1         1 26        0.044450
     75 H19          0.5410    -5.7840    -2.9430 h1         1 26        0.044450
     76 H20         -0.4250    -4.8740    -0.1770 hc         1 26        0.054450
     77 H21         -1.3560    -4.9000    -1.6550 hc         1 26        0.054450
     78 H22          1.1110    -3.1780    -1.1160 h1         1 26        0.077450
     79 H23          0.3260    -3.2750    -2.6920 h1         1 26        0.077450
     80 H24         -4.0230    -1.1400    -3.3760 ha         1 26        0.170250
     81 H25         -5.7230     0.4370    -2.6000 ha         1 26        0.170250
     82 H26         -6.6730     3.2420     2.6270 h1         1 26        0.077450
     83 H27         -7.7220     2.6820     1.3400 h1         1 26        0.077450
     84 H28         -7.0220     4.4820    -0.1500 hc         1 26        0.054450
     85 H29         -7.5160     5.1300     1.3980 hc         1 26        0.054450
     86 H30         -5.0180     5.1880     2.0610 h1         1 26        0.044450
     87 H31         -5.6110     6.3600     0.8750 h1         1 26        0.044450
     88 H32         -4.8210     4.9310    -0.8780 hn         1 26        0.373300
     89 H33         -3.4220     6.6870     0.1390 h1         1 26        0.026200
     90 H34         -2.6810     5.3830     1.0890 h1         1 26        0.026200
     91 H35         -1.9630     4.2460    -1.0050 hc         1 26        0.053950
     92 H36         -2.8440     5.4210    -1.9720 hc         1 26        0.053950
     93 H37         -1.4060     7.2700    -1.1030 hc         1 26        0.042450
     94 H38         -0.5680     6.0800    -2.0790 hc         1 26        0.042450
     95 H39          0.7320     6.8180    -0.1030 h1         1 26        0.028950
     96 H40         -0.5050     6.1830     0.9890 h1         1 26        0.028950
     97 H41          0.9460     4.5800    -1.0210 hn         1 26        0.366800
     98 H42          2.3450     5.4020     0.8600 h1         1 26        0.030450
     99 H43          1.2290     4.5190     1.9140 h1         1 26        0.030450
    100 H44          2.9630     3.3450    -0.3290 hc         1 26        0.051200
    101 H45          3.2620     3.2270     1.4000 hc         1 26        0.051200
    102 H46          1.0820     1.9500     1.6670 h1         1 26        0.047700
    103 H47          2.3290     1.1290     0.7300 h1         1 26        0.047700
    104 H48         -0.0740     2.5220    -0.2880 hn         1 26        0.335500
    105 H49          2.6670     2.1580    -3.6910 ha         1 26        0.150000
    106 H50          4.5850     0.7880    -4.4700 ha         1 26        0.142000
    107 H51          5.1270    -1.3510    -3.3250 ha         1 26        0.150000
    108 H52          1.8480    -0.7360    -0.6120 ha         1 26        0.159000
    109 H53         -2.3930     1.1850     3.2160 ha         1 26        0.170250
    110 H54         -0.7050    -0.4530     2.4550 ha         1 26        0.170250
@<TRIPOS>BOND
     1     1     2 2   
     2     2     3 1   
     3     2    45 1   
     4     3     4 1   
     5     3    57 1   
     6     4     5 1   
     7     4    58 1   
     8     4    59 1   
     9     5     6 1   
    10     5    60 1   
    11     5    61 1   
    12     6     7 1   
    13     6    62 1   
    14     6    63 1   
    15     7     8 1   
    16     7    64 1   
    17     8     9 1   
    18     8    65 1   
    19     8    66 1   
    20     9    10 1   
    21     9    67 1   
    22     9    68 1   
    23    10    11 1   
    24    10    69 1   
    25    10    70 1   
    26    11    12 1   
    27    11    71 1   
    28    11    72 1   
    29    12    13 1   
    30    12    73 1   
    31    13    14 1   
    32    13    74 1   
    33    13    75 1   
    34    14    15 1   
    35    14    76 1   
    36    14    77 1   
    37    15    16 1   
    38    15    78 1   
    39    15    79 1   
    40    16    17 1   
    41    16    53 1   
    42    17    18 2   
    43    17    19 1   
    44    19    20 ar  
    45    19    55 ar  
    46    20    21 ar  
    47    20    80 1   
    48    21    22 ar  
    49    21    81 1   
    50    22    23 1   
    51    22    56 ar  
    52    23    24 2   
    53    23    25 1   
    54    25    26 1   
    55    25    47 1   
    56    26    27 1   
    57    26    82 1   
    58    26    83 1   
    59    27    28 1   
    60    27    84 1   
    61    27    85 1   
    62    28    29 1   
    63    28    86 1   
    64    28    87 1   
    65    29    30 1   
    66    29    88 1   
    67    30    31 1   
    68    30    89 1   
    69    30    90 1   
    70    31    32 1   
    71    31    91 1   
    72    31    92 1   
    73    32    33 1   
    74    32    93 1   
    75    32    94 1   
    76    33    34 1   
    77    33    95 1   
    78    33    96 1   
    79    34    35 1   
    80    34    97 1   
    81    35    36 1   
    82    35    98 1   
    83    35    99 1   
    84    36    37 1   
    85    36   100 1   
    86    36   101 1   
    87    37    38 1   
    88    37   102 1   
    89    37   103 1   
    90    38    39 1   
    91    38   104 1   
    92    39    40 2   
    93    39    41 1   
    94    41    42 ar  
    95    41    46 ar  
    96    42    43 ar  
    97    42   105 1   
    98    43    44 ar  
    99    43   106 1   
   100    44    45 ar  
   101    44   107 1   
   102    45    46 ar  
   103    46   108 1   
   104    47    48 2   
   105    47    49 1   
   106    49    50 ar  
   107    49    56 ar  
   108    50    51 ar  
   109    50   109 1   
   110    51    52 ar  
   111    51   110 1   
   112    52    53 1   
   113    52    55 ar  
   114    53    54 2   
   115    55    56 ar  
@<TRIPOS>SUBSTRUCTURE
     1 26          1 TEMP              0 ****  ****    0 ROOT
