@<TRIPOS>MOLECULE
60
  138   147     1     0     0
SMALL
bcc


@<TRIPOS>ATOM
      1 C            4.7390    -8.9470     1.2600 c3         0 60       -0.076233
      2 C1           3.7070    -9.9790     0.7990 c3         0 60       -0.076233
      3 C2           2.5750    -9.2650     0.0570 c3         0 60       -0.090400
      4 C3           2.6910    -7.7550     0.2780 c3         0 60        0.176667
      5 H            2.7310    -7.5450     1.3470 h1         0 60        0.048200
      6 N            1.5200    -7.0900    -0.3070 n3         0 60       -0.824533
      7 C4           0.3760    -7.9900    -0.0990 c3         0 60        0.207600
      8 C5          -0.8960    -7.1800    -0.1020 ca         0 60       -0.105633
      9 C6          -1.6270    -7.0460    -1.2670 ca         0 60       -0.123167
     10 C7          -2.7760    -6.2810    -1.2810 ca         0 60       -0.119000
     11 C8          -3.1970    -5.6410    -0.1170 cp         0 60       -0.037167
     12 C9          -2.4780    -5.8140     1.0650 ca         0 60       -0.119000
     13 C10         -1.3310    -6.5810     1.0660 ca         0 60       -0.123167
     14 C11         -4.3760    -4.7430    -0.1410 cp         0 60       -0.037167
     15 C12         -5.0620    -4.5210    -1.3340 ca         0 60       -0.119000
     16 C13         -6.1400    -3.6600    -1.3570 ca         0 60       -0.123167
     17 C14         -6.5440    -3.0210    -0.1980 ca         0 60       -0.105633
     18 C15         -7.7130    -2.0710    -0.2370 c3         0 60        0.207600
     19 N1          -7.3170    -0.7750     0.3290 n3         0 60       -0.824533
     20 C16         -8.1510     0.2380    -0.3310 c3         0 60        0.176667
     21 H1          -7.7760     0.4190    -1.3380 h1         0 60        0.048200
     22 C17         -9.5950    -0.2650    -0.4150 c3         0 60       -0.090400
     23 C18        -10.4160     0.7000    -1.2740 c3         0 60       -0.076233
     24 C19        -10.1690     2.1350    -0.8040 c3         0 60       -0.076233
     25 C20         -9.5270     2.1110     0.5860 c3         0 60       -0.090400
     26 C21         -8.1120     1.5370     0.4770 c3         0 60        0.176667
     27 H2          -7.7230     1.3290     1.4730 h1         0 60        0.048200
     28 N2          -7.2450     2.5090    -0.2010 n3         0 60       -0.824533
     29 C22         -7.2180     3.7190     0.6300 c3         0 60        0.207600
     30 C23         -5.8460     4.3420     0.5510 ca         0 60       -0.105633
     31 C24         -5.4140     4.9090    -0.6330 ca         0 60       -0.123167
     32 C25         -4.1540     5.4670    -0.7160 ca         0 60       -0.119000
     33 C26         -3.3170     5.4580     0.3990 cp         0 60       -0.037167
     34 C27         -3.7670     4.9030     1.5960 ca         0 60       -0.119000
     35 C28         -5.0280     4.3470     1.6660 ca         0 60       -0.123167
     36 C29         -1.9470     6.0180     0.3080 cp         0 60       -0.037167
     37 C30         -1.4780     6.5220    -0.9040 ca         0 60       -0.119000
     38 C31         -0.1990     7.0330    -0.9860 ca         0 60       -0.123167
     39 C32          0.6170     7.0480     0.1310 ca         0 60       -0.105633
     40 C33          2.0100     7.6130     0.0300 c3         0 60        0.207600
     41 N3           2.9880     6.6070     0.4630 n3         0 60       -0.824533
     42 C34          4.2120     6.8610    -0.3100 c3         0 60        0.176667
     43 H3           4.0770     6.5020    -1.3300 h1         0 60        0.048200
     44 C35          4.4970     8.3640    -0.3360 c3         0 60       -0.090400
     45 C36          5.6750     8.6380    -1.2740 c3         0 60       -0.076233
     46 C37          6.8500     7.7360    -0.8910 c3         0 60       -0.076233
     47 C38          6.5740     7.0910     0.4690 c3         0 60       -0.090400
     48 C39          5.3890     6.1310     0.3410 c3         0 60        0.176667
     49 H4           5.0930     5.7800     1.3290 h1         0 60        0.048200
     50 N4           5.7760     4.9880    -0.4950 n3         0 60       -0.824533
     51 C40          6.9510     4.3710     0.1340 c3         0 60        0.207600
     52 C41          6.8150     2.8690     0.0720 ca         0 60       -0.105633
     53 C42          6.9100     2.2180    -1.1440 ca         0 60       -0.123167
     54 C43          6.7650     0.8470    -1.2090 ca         0 60       -0.119000
     55 C44          6.5240     0.1190    -0.0460 cp         0 60       -0.037167
     56 C45          6.4580     0.7790     1.1810 ca         0 60       -0.119000
     57 C46          6.6030     2.1510     1.2330 ca         0 60       -0.123167
     58 C47          6.3070    -1.3470    -0.1090 cp         0 60       -0.037167
     59 C48          6.2870    -2.0020    -1.3390 ca         0 60       -0.119000
     60 C49          6.0640    -3.3630    -1.3900 ca         0 60       -0.123167
     61 C50          5.8650    -4.0780    -0.2230 ca         0 60       -0.105633
     62 C51          5.6120    -5.5630    -0.2860 c3         0 60        0.207600
     63 N5           4.1960    -5.8400    -0.0110 n3         0 60       -0.824533
     64 C52          3.9670    -7.2390    -0.3900 c3         0 60        0.176667
     65 H5           3.8650    -7.3080    -1.4730 h1         0 60        0.048200
     66 C53          5.1590    -8.0850     0.0670 c3         0 60       -0.090400
     67 C54          5.8990    -3.4360     1.0020 ca         0 60       -0.123167
     68 C55          6.1190    -2.0750     1.0640 ca         0 60       -0.119000
     69 C56          0.1560     6.5520     1.3370 ca         0 60       -0.123167
     70 C57         -1.1220     6.0390     1.4310 ca         0 60       -0.119000
     71 C58         -5.8800    -3.2530     0.9930 ca         0 60       -0.123167
     72 C59         -4.8000    -4.1110     1.0270 ca         0 60       -0.119000
     73 H6           4.3020    -8.3140     2.0310 hc         0 60        0.040867
     74 H7           5.6120    -9.4610     1.6620 hc         0 60        0.040867
     75 H8           4.1830   -10.6970     0.1310 hc         0 60        0.040867
     76 H9           3.3010   -10.5000     1.6660 hc         0 60        0.040867
     77 H10          2.6450    -9.4830    -1.0080 hc         0 60        0.044950
     78 H11          1.6150    -9.6140     0.4370 hc         0 60        0.044950
     79 H12          1.3450    -6.2660     0.2490 hn         0 60        0.370967
     80 H13          0.3410    -8.7270    -0.9020 h1         0 60        0.050033
     81 H14          0.4820    -8.4990     0.8590 h1         0 60        0.050033
     82 H15         -1.2990    -7.5410    -2.1690 ha         0 60        0.136167
     83 H16         -3.3470    -6.1780    -2.1920 ha         0 60        0.135500
     84 H17         -2.8180    -5.3480     1.9780 ha         0 60        0.135500
     85 H18         -0.7720    -6.7150     1.9810 ha         0 60        0.136167
     86 H19         -4.7510    -5.0220    -2.2390 ha         0 60        0.135500
     87 H20         -6.6700    -3.4850    -2.2810 ha         0 60        0.136167
     88 H21         -8.0340    -1.9340    -1.2690 h1         0 60        0.050033
     89 H22         -8.5360    -2.4850     0.3460 h1         0 60        0.050033
     90 H23         -7.5900    -0.7870     1.3000 hn         0 60        0.370967
     91 H24         -9.6090    -1.2570    -0.8660 hc         0 60        0.044950
     92 H25        -10.0220    -0.3140     0.5870 hc         0 60        0.044950
     93 H26        -10.1160     0.6030    -2.3180 hc         0 60        0.040867
     94 H27        -11.4750     0.4630    -1.1760 hc         0 60        0.040867
     95 H28         -9.5010     2.6370    -1.5040 hc         0 60        0.040867
     96 H29        -11.1170     2.6710    -0.7570 hc         0 60        0.040867
     97 H30         -9.4790     3.1250     0.9830 hc         0 60        0.044950
     98 H31        -10.1230     1.4860     1.2520 hc         0 60        0.044950
     99 H32         -6.3120     2.1250    -0.1860 hn         0 60        0.370967
    100 H33         -7.9610     4.4280     0.2660 h1         0 60        0.050033
    101 H34         -7.4400     3.4560     1.6640 h1         0 60        0.050033
    102 H35         -6.0640     4.9160    -1.4960 ha         0 60        0.136167
    103 H36         -3.8170     5.9090    -1.6420 ha         0 60        0.135500
    104 H37         -3.1290     4.9070     2.4670 ha         0 60        0.135500
    105 H38         -5.3770     3.9170     2.5930 ha         0 60        0.136167
    106 H39         -2.1140     6.5130    -1.7770 ha         0 60        0.135500
    107 H40          0.1660     7.4220    -1.9250 ha         0 60        0.136167
    108 H41          2.2130     7.8940    -1.0040 h1         0 60        0.050033
    109 H42          2.0910     8.4940     0.6660 h1         0 60        0.050033
    110 H43          3.2060     6.8100     1.4260 hn         0 60        0.370967
    111 H44          3.6160     8.8960    -0.6950 hc         0 60        0.044950
    112 H45          4.7450     8.7050     0.6690 hc         0 60        0.044950
    113 H46          5.3780     8.4310    -2.3020 hc         0 60        0.040867
    114 H47          5.9750     9.6820    -1.1860 hc         0 60        0.040867
    115 H48          6.9720     6.9580    -1.6440 hc         0 60        0.040867
    116 H49          7.7620     8.3310    -0.8330 hc         0 60        0.040867
    117 H50          7.4560     6.5390     0.7960 hc         0 60        0.044950
    118 H51          6.3380     7.8650     1.1990 hc         0 60        0.044950
    119 H52          5.0270     4.3150    -0.4320 hn         0 60        0.370967
    120 H53          7.8520     4.6770    -0.3980 h1         0 60        0.050033
    121 H54          7.0160     4.6880     1.1750 h1         0 60        0.050033
    122 H55          7.0980     2.7840    -2.0450 ha         0 60        0.136167
    123 H56          6.8380     0.3390    -2.1600 ha         0 60        0.135500
    124 H57          6.2930     0.2180     2.0890 ha         0 60        0.135500
    125 H58          6.5510     2.6630     2.1830 ha         0 60        0.136167
    126 H59          6.4460    -1.4450    -2.2510 ha         0 60        0.135500
    127 H60          6.0450    -3.8710    -2.3430 ha         0 60        0.136167
    128 H61          5.8670    -5.9320    -1.2790 h1         0 60        0.050033
    129 H62          6.2310    -6.0670     0.4570 h1         0 60        0.050033
    130 H63          4.0780    -5.7850     0.9900 hn         0 60        0.370967
    131 H64          5.9770    -7.4290     0.3650 hc         0 60        0.044950
    132 H65          5.4850    -8.7260    -0.7520 hc         0 60        0.044950
    133 H66          5.7520    -4.0000     1.9110 ha         0 60        0.136167
    134 H67          6.1470    -1.5750     2.0210 ha         0 60        0.135500
    135 H68          0.7970     6.5660     2.2060 ha         0 60        0.136167
    136 H69         -1.4820     5.6550     2.3740 ha         0 60        0.135500
    137 H70         -6.2070    -2.7610     1.8970 ha         0 60        0.136167
    138 H71         -4.2840    -4.2940     1.9580 ha         0 60        0.135500
@<TRIPOS>BOND
     1     1     2 1   
     2     1    66 1   
     3     1    73 1   
     4     1    74 1   
     5     2     3 1   
     6     2    75 1   
     7     2    76 1   
     8     3     4 1   
     9     3    77 1   
    10     3    78 1   
    11     4     5 1   
    12     4     6 1   
    13     4    64 1   
    14     6     7 1   
    15     6    79 1   
    16     7     8 1   
    17     7    80 1   
    18     7    81 1   
    19     8     9 ar  
    20     8    13 ar  
    21     9    10 ar  
    22     9    82 1   
    23    10    11 ar  
    24    10    83 1   
    25    11    12 ar  
    26    11    14 1   
    27    12    13 ar  
    28    12    84 1   
    29    13    85 1   
    30    14    15 ar  
    31    14    72 ar  
    32    15    16 ar  
    33    15    86 1   
    34    16    17 ar  
    35    16    87 1   
    36    17    18 1   
    37    17    71 ar  
    38    18    19 1   
    39    18    88 1   
    40    18    89 1   
    41    19    20 1   
    42    19    90 1   
    43    20    21 1   
    44    20    22 1   
    45    20    26 1   
    46    22    23 1   
    47    22    91 1   
    48    22    92 1   
    49    23    24 1   
    50    23    93 1   
    51    23    94 1   
    52    24    25 1   
    53    24    95 1   
    54    24    96 1   
    55    25    26 1   
    56    25    97 1   
    57    25    98 1   
    58    26    27 1   
    59    26    28 1   
    60    28    29 1   
    61    28    99 1   
    62    29    30 1   
    63    29   100 1   
    64    29   101 1   
    65    30    31 ar  
    66    30    35 ar  
    67    31    32 ar  
    68    31   102 1   
    69    32    33 ar  
    70    32   103 1   
    71    33    34 ar  
    72    33    36 1   
    73    34    35 ar  
    74    34   104 1   
    75    35   105 1   
    76    36    37 ar  
    77    36    70 ar  
    78    37    38 ar  
    79    37   106 1   
    80    38    39 ar  
    81    38   107 1   
    82    39    40 1   
    83    39    69 ar  
    84    40    41 1   
    85    40   108 1   
    86    40   109 1   
    87    41    42 1   
    88    41   110 1   
    89    42    43 1   
    90    42    44 1   
    91    42    48 1   
    92    44    45 1   
    93    44   111 1   
    94    44   112 1   
    95    45    46 1   
    96    45   113 1   
    97    45   114 1   
    98    46    47 1   
    99    46   115 1   
   100    46   116 1   
   101    47    48 1   
   102    47   117 1   
   103    47   118 1   
   104    48    49 1   
   105    48    50 1   
   106    50    51 1   
   107    50   119 1   
   108    51    52 1   
   109    51   120 1   
   110    51   121 1   
   111    52    53 ar  
   112    52    57 ar  
   113    53    54 ar  
   114    53   122 1   
   115    54    55 ar  
   116    54   123 1   
   117    55    56 ar  
   118    55    58 1   
   119    56    57 ar  
   120    56   124 1   
   121    57   125 1   
   122    58    59 ar  
   123    58    68 ar  
   124    59    60 ar  
   125    59   126 1   
   126    60    61 ar  
   127    60   127 1   
   128    61    62 1   
   129    61    67 ar  
   130    62    63 1   
   131    62   128 1   
   132    62   129 1   
   133    63    64 1   
   134    63   130 1   
   135    64    65 1   
   136    64    66 1   
   137    66   131 1   
   138    66   132 1   
   139    67    68 ar  
   140    67   133 1   
   141    68   134 1   
   142    69    70 ar  
   143    69   135 1   
   144    70   136 1   
   145    71    72 ar  
   146    71   137 1   
   147    72   138 1   
@<TRIPOS>SUBSTRUCTURE
     1 60          1 TEMP              0 ****  ****    0 ROOT
