@<TRIPOS>MOLECULE
ASB
  114   120     1     0     0
SMALL
bcc


@<TRIPOS>ATOM
      1 C1          -1.0260     7.3980     0.1950 c3         1 ASB       0.120200
      2 O1          -1.0590     5.9680     0.0880 os         1 ASB      -0.388900
      3 C2          -1.0670     5.3860     1.3340 ca         1 ASB       0.095600
      4 C3           0.1660     4.9740     1.8880 ca         1 ASB      -0.129800
      5 C4           0.1550     4.4310     3.1800 ca         1 ASB      -0.095000
      6 C5          -1.0480     4.2460     3.8800 ca         1 ASB      -0.038800
      7 C6          -1.0300     3.7320     5.2920 c3         1 ASB      -0.076800
      8 C7          -2.2600     4.6200     3.2830 ca         1 ASB      -0.095000
      9 C8          -2.2940     5.1690     1.9930 ca         1 ASB      -0.129800
     10 C9          -3.6130     5.5730     1.3710 c3         1 ASB       0.131300
     11 N1          -4.6360     4.5310     1.4140 n          1 ASB      -0.515150
     12 C10         -4.5270     3.4210     0.6150 c          1 ASB       0.655200
     13 O2          -3.5380     3.1060    -0.0410 o          1 ASB      -0.557100
     14 C11         -5.6630     2.4730     0.5240 cc         1 ASB      -0.026150
     15 C12         -6.9480     2.9160     0.2300 cd         1 ASB      -0.097500
     16 C13         -7.8990     1.9930    -0.1830 cd         1 ASB       0.004250
     17 C14         -7.5280     0.6660    -0.3810 cc         1 ASB      -0.092500
     18 C15         -6.2200     0.2520    -0.0960 cc         1 ASB      -0.008300
     19 C16         -5.7140    -1.0920    -0.4390 cd         1 ASB      -0.008300
     20 C17         -6.1630    -2.2540     0.2030 cd         1 ASB      -0.092500
     21 C18         -5.4980    -3.4600     0.0050 cc         1 ASB       0.004250
     22 C19         -4.3400    -3.4840    -0.7620 cc         1 ASB      -0.097500
     23 C20         -3.9240    -2.3200    -1.4050 cd         1 ASB      -0.026150
     24 C21         -2.5270    -2.1700    -1.9030 c          1 ASB       0.655200
     25 O3          -2.0320    -1.0510    -1.7870 o          1 ASB      -0.557100
     26 N2          -1.8430    -3.2550    -2.4030 n          1 ASB      -0.515150
     27 C22         -0.5230    -3.0510    -2.9820 c3         1 ASB       0.131300
     28 C23          0.3300    -4.2900    -2.9800 ca         1 ASB      -0.129800
     29 C24          0.1780    -5.2250    -4.0150 ca         1 ASB      -0.095000
     30 C25          1.0120    -6.3440    -4.1030 ca         1 ASB      -0.038800
     31 C26          0.8610    -7.3200    -5.2370 c3         1 ASB      -0.076800
     32 C27          2.0440    -6.5040    -3.1710 ca         1 ASB      -0.095000
     33 C28          2.2260    -5.5910    -2.1190 ca         1 ASB      -0.129800
     34 C29          3.3810    -5.8020    -1.1670 c3         1 ASB       0.131300
     35 N3           4.3120    -4.6830    -1.2040 n          1 ASB      -0.515150
     36 C30          4.5710    -3.9280    -0.0830 c          1 ASB       0.655200
     37 O4           4.0930    -4.1550     1.0230 o          1 ASB      -0.557100
     38 C31          5.4390    -2.7210    -0.2380 cc         1 ASB      -0.026150
     39 C32          6.5670    -2.7780    -1.0610 cd         1 ASB      -0.097500
     40 C33          7.4090    -1.6820    -1.1580 cd         1 ASB       0.004250
     41 C34          7.1160    -0.5370    -0.4320 cc         1 ASB      -0.092500
     42 C35          5.9710    -0.4810     0.3780 cc         1 ASB      -0.008300
     43 C36          5.6560     0.7280     1.1650 cd         1 ASB      -0.008300
     44 C37          6.2250     0.9380     2.4300 cd         1 ASB      -0.092500
     45 C38          5.7860     1.9840     3.2290 cc         1 ASB       0.004250
     46 C39          4.7350     2.7770     2.7920 cc         1 ASB      -0.097500
     47 C40          4.1900     2.5640     1.5240 cd         1 ASB      -0.026150
     48 C41          2.8950     3.2000     1.1370 c          1 ASB       0.655200
     49 O5           2.1420     2.5260     0.4400 o          1 ASB      -0.557100
     50 N4           2.6170     4.4710     1.5830 n          1 ASB      -0.515150
     51 C42          1.4440     5.2040     1.1110 c3         1 ASB       0.131300
     52 N5           4.7160     1.6060     0.6900 na         1 ASB       0.062650
     53 C43          4.3130     1.5930    -0.7490 c3         1 ASB      -0.046400
     54 N6           5.1430    -1.5770     0.4710 na         1 ASB       0.062650
     55 C44          3.9420    -1.5800     1.3590 c3         1 ASB      -0.046400
     56 C45          1.3220    -4.5170    -2.0040 ca         1 ASB       0.095600
     57 O6           1.4510    -3.6240    -0.9640 os         1 ASB      -0.388900
     58 C46          0.6940    -4.0920     0.1590 c3         1 ASB       0.120200
     59 N7          -4.6820    -1.1780    -1.3360 na         1 ASB       0.062650
     60 C47         -4.4550    -0.0990    -2.3520 c3         1 ASB      -0.046400
     61 N8          -5.3420     1.1440     0.4620 na         1 ASB       0.062650
     62 C48         -4.0720     0.6970     1.1150 c3         1 ASB      -0.046400
     63 H1          -0.1500     7.7380     0.7570 h1         1 ASB       0.046367
     64 H2          -0.9600     7.8050    -0.8180 h1         1 ASB       0.046367
     65 H3          -1.9400     7.7830     0.6580 h1         1 ASB       0.046367
     66 H4           1.0890     4.1660     3.6700 ha         1 ASB       0.153500
     67 H5          -1.9480     3.1790     5.5170 hc         1 ASB       0.071533
     68 H6          -0.9380     4.5670     5.9930 hc         1 ASB       0.071533
     69 H7          -0.1920     3.0450     5.4460 hc         1 ASB       0.071533
     70 H8          -3.1860     4.5080     3.8460 ha         1 ASB       0.153500
     71 H9          -4.0080     6.4450     1.9040 h1         1 ASB       0.095325
     72 H10         -3.4970     5.8490     0.3180 h1         1 ASB       0.095325
     73 H11         -5.4980     4.7770     1.8870 hn         1 ASB       0.338750
     74 H12         -7.2020     3.9740     0.2580 ha         1 ASB       0.223250
     75 H13         -8.9130     2.3220    -0.4230 ha         1 ASB       0.225500
     76 H14         -8.2660    -0.0300    -0.7890 ha         1 ASB       0.214500
     77 H15         -7.0110    -2.2290     0.8890 ha         1 ASB       0.214500
     78 H16         -5.8400    -4.3650     0.5130 ha         1 ASB       0.225500
     79 H17         -3.7490    -4.3980    -0.8000 ha         1 ASB       0.223250
     80 H18         -2.3030    -4.1310    -2.6310 hn         1 ASB       0.338750
     81 H19         -0.0100    -2.2300    -2.4680 h1         1 ASB       0.095325
     82 H20         -0.6750    -2.7060    -4.0130 h1         1 ASB       0.095325
     83 H21         -0.5800    -5.0730    -4.7840 ha         1 ASB       0.153500
     84 H22          1.4790    -7.0070    -6.0840 hc         1 ASB       0.071533
     85 H23          1.1630    -8.3260    -4.9290 hc         1 ASB       0.071533
     86 H24         -0.1830    -7.3800    -5.5630 hc         1 ASB       0.071533
     87 H25          2.7160    -7.3580    -3.2750 ha         1 ASB       0.153500
     88 H26          3.9630    -6.6850    -1.4550 h1         1 ASB       0.095325
     89 H27          3.0110    -5.9830    -0.1540 h1         1 ASB       0.095325
     90 H28          4.6840    -4.4600    -2.1190 hn         1 ASB       0.338750
     91 H29          6.8260    -3.6930    -1.5950 ha         1 ASB       0.223250
     92 H30          8.3060    -1.7320    -1.7790 ha         1 ASB       0.225500
     93 H31          7.8020     0.3100    -0.4980 ha         1 ASB       0.214500
     94 H32          7.0020     0.2740     2.8160 ha         1 ASB       0.214500
     95 H33          6.2210     2.1440     4.2180 ha         1 ASB       0.225500
     96 H34          4.3220     3.5230     3.4700 ha         1 ASB       0.223250
     97 H35          3.2850     5.0240     2.1070 hn         1 ASB       0.338750
     98 H36          1.2930     4.9380     0.0590 h1         1 ASB       0.095325
     99 H37          1.7060     6.2660     1.1670 h1         1 ASB       0.095325
    100 H38          4.0440     2.6020    -1.0720 h1         1 ASB       0.111867
    101 H39          3.4930     0.8810    -0.8650 h1         1 ASB       0.111867
    102 H40          5.1690     1.2930    -1.3570 h1         1 ASB       0.111867
    103 H41          3.6420    -0.5670     1.6230 h1         1 ASB       0.111867
    104 H42          3.0960    -2.0080     0.8160 h1         1 ASB       0.111867
    105 H43          4.1970    -2.1210     2.2720 h1         1 ASB       0.111867
    106 H44          1.0230    -5.0800     0.4950 h1         1 ASB       0.046367
    107 H45         -0.3770    -4.1100    -0.0680 h1         1 ASB       0.046367
    108 H46          0.8520    -3.3870     0.9810 h1         1 ASB       0.046367
    109 H47         -5.4240     0.3290    -2.6260 h1         1 ASB       0.111867
    110 H48         -4.0260    -0.5320    -3.2590 h1         1 ASB       0.111867
    111 H49         -3.8080     0.6650    -1.9180 h1         1 ASB       0.111867
    112 H50         -4.2330    -0.2880     1.5600 h1         1 ASB       0.111867
    113 H51         -3.8160     1.3770     1.9320 h1         1 ASB       0.111867
    114 H52         -3.2840     0.6550     0.3630 h1         1 ASB       0.111867
@<TRIPOS>BOND
     1     1     2 1   
     2     1    63 1   
     3     1    64 1   
     4     1    65 1   
     5     2     3 1   
     6     3     4 ar  
     7     3     9 ar  
     8     4     5 ar  
     9     4    51 1   
    10     5     6 ar  
    11     5    66 1   
    12     6     7 1   
    13     6     8 ar  
    14     7    67 1   
    15     7    68 1   
    16     7    69 1   
    17     8     9 ar  
    18     8    70 1   
    19     9    10 1   
    20    10    11 1   
    21    10    71 1   
    22    10    72 1   
    23    11    12 1   
    24    11    73 1   
    25    12    13 2   
    26    12    14 1   
    27    14    15 2   
    28    14    61 1   
    29    15    16 1   
    30    15    74 1   
    31    16    17 2   
    32    16    75 1   
    33    17    18 1   
    34    17    76 1   
    35    18    19 2   
    36    18    61 1   
    37    19    20 1   
    38    19    59 1   
    39    20    21 2   
    40    20    77 1   
    41    21    22 1   
    42    21    78 1   
    43    22    23 2   
    44    22    79 1   
    45    23    24 1   
    46    23    59 1   
    47    24    25 2   
    48    24    26 1   
    49    26    27 1   
    50    26    80 1   
    51    27    28 1   
    52    27    81 1   
    53    27    82 1   
    54    28    29 ar  
    55    28    56 ar  
    56    29    30 ar  
    57    29    83 1   
    58    30    31 1   
    59    30    32 ar  
    60    31    84 1   
    61    31    85 1   
    62    31    86 1   
    63    32    33 ar  
    64    32    87 1   
    65    33    34 1   
    66    33    56 ar  
    67    34    35 1   
    68    34    88 1   
    69    34    89 1   
    70    35    36 1   
    71    35    90 1   
    72    36    37 2   
    73    36    38 1   
    74    38    39 2   
    75    38    54 1   
    76    39    40 1   
    77    39    91 1   
    78    40    41 2   
    79    40    92 1   
    80    41    42 1   
    81    41    93 1   
    82    42    43 2   
    83    42    54 1   
    84    43    44 1   
    85    43    52 1   
    86    44    45 2   
    87    44    94 1   
    88    45    46 1   
    89    45    95 1   
    90    46    47 2   
    91    46    96 1   
    92    47    48 1   
    93    47    52 1   
    94    48    49 2   
    95    48    50 1   
    96    50    51 1   
    97    50    97 1   
    98    51    98 1   
    99    51    99 1   
   100    52    53 1   
   101    53   100 1   
   102    53   101 1   
   103    53   102 1   
   104    54    55 1   
   105    55   103 1   
   106    55   104 1   
   107    55   105 1   
   108    56    57 1   
   109    57    58 1   
   110    58   106 1   
   111    58   107 1   
   112    58   108 1   
   113    59    60 1   
   114    60   109 1   
   115    60   110 1   
   116    60   111 1   
   117    61    62 1   
   118    62   112 1   
   119    62   113 1   
   120    62   114 1   
@<TRIPOS>SUBSTRUCTURE
     1 ASB         1 TEMP              0 ****  ****    0 ROOT
