@<TRIPOS>MOLECULE
30
  108   116     1     0     0
SMALL
bcc


@<TRIPOS>ATOM
      1 O1           5.1140    -3.7830    -1.8810 o          1 30       -0.596750
      2 C1           4.3210    -2.8960    -2.1880 c          1 30        0.715850
      3 C2           3.8900    -1.9360    -1.1470 ca         1 30       -0.114600
      4 C3           4.3740    -2.0740     0.1600 ca         1 30       -0.061875
      5 C4           3.9550    -1.1960     1.1560 ca         1 30       -0.061875
      6 C5           3.0440    -0.1790     0.8510 ca         1 30       -0.114600
      7 C6           2.6060     0.7500     1.9180 c          1 30        0.715850
      8 O2           3.1240     0.6760     3.0280 o          1 30       -0.596750
      9 N1           1.6120     1.6660     1.5820 n          1 30       -0.488900
     10 C7           1.1280     2.5640     2.6270 c3         1 30        0.083500
     11 C8           1.9170     3.8790     2.6510 c3         1 30       -0.095150
     12 C9           1.1210     5.0280     3.2780 c3         1 30       -0.076900
     13 C10          0.0620     5.5710     2.3140 c3         1 30       -0.082150
     14 C11         -0.8360     6.6160     2.9750 c3         1 30       -0.079150
     15 C12         -1.8700     7.2210     2.0170 c3         1 30       -0.079150
     16 C13         -2.7550     6.1680     1.3420 c3         1 30       -0.082150
     17 C14         -3.9450     6.7960     0.6210 c3         1 30       -0.076900
     18 C15         -4.6730     5.8410    -0.3330 c3         1 30       -0.095150
     19 C16         -5.3410     4.6250     0.3290 c3         1 30        0.083500
     20 N2          -4.4610     3.4630     0.4760 n          1 30       -0.488900
     21 C17         -4.1300     2.7630    -0.6870 c          1 30        0.715850
     22 O3          -4.5300     3.0660    -1.8080 o          1 30       -0.596750
     23 C18         -3.2710     1.5660    -0.5370 ca         1 30       -0.114600
     24 C19         -2.8720     0.8550    -1.6760 ca         1 30       -0.061875
     25 C20         -2.0630    -0.2730    -1.5490 ca         1 30       -0.061875
     26 C21         -1.6430    -0.6920    -0.2810 ca         1 30       -0.114600
     27 C22         -0.7540    -1.8710    -0.1610 c          1 30        0.715850
     28 O4          -0.3470    -2.4200    -1.1820 o          1 30       -0.596750
     29 N3          -0.4040    -2.2700     1.1270 n          1 30       -0.488900
     30 C23          0.3840    -3.4960     1.2720 c3         1 30        0.083500
     31 C24         -0.5240    -4.7120     1.5070 c3         1 30       -0.095150
     32 C25          0.2550    -6.0280     1.6120 c3         1 30       -0.076900
     33 C26          0.2440    -6.8820     0.3380 c3         1 30       -0.082150
     34 C27          0.8390    -6.1780    -0.8790 c3         1 30       -0.079150
     35 C28          1.0130    -7.1310    -2.0670 c3         1 30       -0.079150
     36 C29          1.3530    -6.4110    -3.3790 c3         1 30       -0.082150
     37 C30          2.5860    -5.5130    -3.2720 c3         1 30       -0.076900
     38 C31          2.8900    -4.7860    -4.5860 c3         1 30       -0.095150
     39 C32          4.0470    -3.7800    -4.4540 c3         1 30        0.083500
     40 N4           3.7680    -2.7450    -3.4590 n          1 30       -0.488900
     41 C33          2.9050    -1.7140    -3.8310 c          1 30        0.715850
     42 O5           2.4680    -1.5610    -4.9690 o          1 30       -0.596750
     43 C34          2.4950    -0.7650    -2.7700 ca         1 30       -0.114600
     44 C35          1.5990     0.2650    -3.0790 ca         1 30       -0.061875
     45 C36          1.1670     1.1340    -2.0810 ca         1 30       -0.061875
     46 C37          1.6280     0.9740    -0.7690 ca         1 30       -0.114600
     47 C38          1.0940     1.8460     0.3000 c          1 30        0.715850
     48 O6           0.2100     2.6530     0.0250 o          1 30       -0.596750
     49 C39          2.5500    -0.0300    -0.4510 ca         1 30       -0.009000
     50 C40          2.9850    -0.9180    -1.4680 ca         1 30       -0.009000
     51 C41         -0.7930    -1.6160     2.2950 c          1 30        0.715850
     52 O7          -0.4730    -1.9800     3.4230 o          1 30       -0.596750
     53 C42         -1.6440    -0.4140     2.1420 ca         1 30       -0.114600
     54 C43         -2.0560     0.2870     3.2820 ca         1 30       -0.061875
     55 C44         -2.8760     1.4060     3.1530 ca         1 30       -0.061875
     56 C45         -3.2840     1.8330     1.8830 ca         1 30       -0.114600
     57 C46         -4.1770     3.0090     1.7630 c          1 30        0.715850
     58 O8          -4.6330     3.5070     2.7900 o          1 30       -0.596750
     59 C47         -2.8720     1.1480     0.7360 ca         1 30       -0.009000
     60 C48         -2.0430     0.0020     0.8670 ca         1 30       -0.009000
     61 H1           5.0780    -2.8700     0.4070 ha         1 30        0.174375
     62 H2           4.3390    -1.3100     2.1700 ha         1 30        0.174375
     63 H3           1.2040     2.0740     3.6050 h1         1 30        0.074325
     64 H4           0.0620     2.7410     2.4560 h1         1 30        0.074325
     65 H5           2.8390     3.7220     3.2260 hc         1 30        0.055200
     66 H6           2.2330     4.1680     1.6410 hc         1 30        0.055200
     67 H7           0.6540     4.6910     4.2120 hc         1 30        0.042200
     68 H8           1.8110     5.8390     3.5380 hc         1 30        0.042200
     69 H9          -0.5560     4.7460     1.9490 hc         1 30        0.043325
     70 H10          0.5570     6.0110     1.4390 hc         1 30        0.043325
     71 H11         -1.3590     6.1600     3.8250 hc         1 30        0.041200
     72 H12         -0.2200     7.4270     3.3820 hc         1 30        0.041200
     73 H13         -2.4960     7.9200     2.5850 hc         1 30        0.041200
     74 H14         -1.3550     7.8090     1.2480 hc         1 30        0.041200
     75 H15         -3.1170     5.4780     2.1070 hc         1 30        0.043325
     76 H16         -2.1610     5.5930     0.6230 hc         1 30        0.043325
     77 H17         -3.5970     7.6550     0.0330 hc         1 30        0.042200
     78 H18         -4.6540     7.1890     1.3590 hc         1 30        0.042200
     79 H19         -5.4630     6.4260    -0.8210 hc         1 30        0.055200
     80 H20         -3.9850     5.5310    -1.1280 hc         1 30        0.055200
     81 H21         -6.1770     4.3070    -0.3080 h1         1 30        0.074325
     82 H22         -5.7790     4.9160     1.2890 h1         1 30        0.074325
     83 H23         -3.1900     1.1790    -2.6660 ha         1 30        0.174375
     84 H24         -1.7570    -0.8150    -2.4420 ha         1 30        0.174375
     85 H25          1.0720    -3.3800     2.1180 h1         1 30        0.074325
     86 H26          1.0010    -3.6410     0.3800 h1         1 30        0.074325
     87 H27         -1.2940    -4.7760     0.7280 hc         1 30        0.055200
     88 H28         -1.0640    -4.5570     2.4490 hc         1 30        0.055200
     89 H29         -0.2030    -6.6320     2.4070 hc         1 30        0.042200
     90 H30          1.2880    -5.8410     1.9270 hc         1 30        0.042200
     91 H31          0.8070    -7.8020     0.5390 hc         1 30        0.043325
     92 H32         -0.7860    -7.1880     0.1140 hc         1 30        0.043325
     93 H33          1.8140    -5.7590    -0.6010 hc         1 30        0.041200
     94 H34          0.1910    -5.3460    -1.1760 hc         1 30        0.041200
     95 H35          0.0900    -7.7030    -2.2190 hc         1 30        0.041200
     96 H36          1.8020    -7.8570    -1.8350 hc         1 30        0.041200
     97 H37          0.4890    -5.8070    -3.6850 hc         1 30        0.043325
     98 H38          1.5090    -7.1600    -4.1640 hc         1 30        0.043325
     99 H39          2.4040    -4.7700    -2.4920 hc         1 30        0.042200
    100 H40          3.4550    -6.1070    -2.9670 hc         1 30        0.042200
    101 H41          1.9880    -4.2640    -4.9270 hc         1 30        0.055200
    102 H42          3.1440    -5.5200    -5.3590 hc         1 30        0.055200
    103 H43          4.9700    -4.3130    -4.2020 h1         1 30        0.074325
    104 H44          4.2100    -3.2980    -5.4260 h1         1 30        0.074325
    105 H45          1.2210     0.3820    -4.0940 ha         1 30        0.174375
    106 H46          0.4550     1.9210    -2.3270 ha         1 30        0.174375
    107 H47         -1.7480    -0.0410     4.2750 ha         1 30        0.174375
    108 H48         -3.2000     1.9390     4.0460 ha         1 30        0.174375
@<TRIPOS>BOND
     1     1     2 2   
     2     2     3 1   
     3     2    40 1   
     4     3     4 ar  
     5     3    50 ar  
     6     4     5 ar  
     7     4    61 1   
     8     5     6 ar  
     9     5    62 1   
    10     6     7 1   
    11     6    49 ar  
    12     7     8 2   
    13     7     9 1   
    14     9    10 1   
    15     9    47 1   
    16    10    11 1   
    17    10    63 1   
    18    10    64 1   
    19    11    12 1   
    20    11    65 1   
    21    11    66 1   
    22    12    13 1   
    23    12    67 1   
    24    12    68 1   
    25    13    14 1   
    26    13    69 1   
    27    13    70 1   
    28    14    15 1   
    29    14    71 1   
    30    14    72 1   
    31    15    16 1   
    32    15    73 1   
    33    15    74 1   
    34    16    17 1   
    35    16    75 1   
    36    16    76 1   
    37    17    18 1   
    38    17    77 1   
    39    17    78 1   
    40    18    19 1   
    41    18    79 1   
    42    18    80 1   
    43    19    20 1   
    44    19    81 1   
    45    19    82 1   
    46    20    21 1   
    47    20    57 1   
    48    21    22 2   
    49    21    23 1   
    50    23    24 ar  
    51    23    59 ar  
    52    24    25 ar  
    53    24    83 1   
    54    25    26 ar  
    55    25    84 1   
    56    26    27 1   
    57    26    60 ar  
    58    27    28 2   
    59    27    29 1   
    60    29    30 1   
    61    29    51 1   
    62    30    31 1   
    63    30    85 1   
    64    30    86 1   
    65    31    32 1   
    66    31    87 1   
    67    31    88 1   
    68    32    33 1   
    69    32    89 1   
    70    32    90 1   
    71    33    34 1   
    72    33    91 1   
    73    33    92 1   
    74    34    35 1   
    75    34    93 1   
    76    34    94 1   
    77    35    36 1   
    78    35    95 1   
    79    35    96 1   
    80    36    37 1   
    81    36    97 1   
    82    36    98 1   
    83    37    38 1   
    84    37    99 1   
    85    37   100 1   
    86    38    39 1   
    87    38   101 1   
    88    38   102 1   
    89    39    40 1   
    90    39   103 1   
    91    39   104 1   
    92    40    41 1   
    93    41    42 2   
    94    41    43 1   
    95    43    44 ar  
    96    43    50 ar  
    97    44    45 ar  
    98    44   105 1   
    99    45    46 ar  
   100    45   106 1   
   101    46    47 1   
   102    46    49 ar  
   103    47    48 2   
   104    49    50 ar  
   105    51    52 2   
   106    51    53 1   
   107    53    54 ar  
   108    53    60 ar  
   109    54    55 ar  
   110    54   107 1   
   111    55    56 ar  
   112    55   108 1   
   113    56    57 1   
   114    56    59 ar  
   115    57    58 2   
   116    59    60 ar  
@<TRIPOS>SUBSTRUCTURE
     1 30          1 TEMP              0 ****  ****    0 ROOT
