@<TRIPOS>MOLECULE
194
  137   144     1     0     0
SMALL
bcc


@<TRIPOS>ATOM
      1 C            0.9190     8.8530    -0.3530 c3         0 194      -0.088100
      2 C1          -0.2930     7.9470    -0.1210 c3         0 194      -0.096267
      3 C2          -1.5430     8.8090     0.0680 c3         0 194      -0.088100
      4 C3          -0.4810     7.0470    -1.3150 cc         0 194       0.249500
      5 C4          -1.5330     7.0650    -2.1540 cd         0 194      -0.244633
      6 C5          -1.3030     6.0550    -3.1170 cd         0 194      -0.256967
      7 C6          -0.1210     5.4890    -2.8150 cc         0 194       0.225500
      8 C7           0.5400     4.3640    -3.5710 c3         0 194       0.132167
      9 N           -0.4840     3.4340    -4.0650 n3         0 194      -0.814700
     10 C8           0.0740     2.0830    -3.9240 c3         0 194       0.119800
     11 C9          -0.0590     1.3280    -5.2500 c3         0 194       0.190633
     12 N1          -0.1530    -0.0740    -5.0580 n3         0 194      -0.773600
     13 C10         -1.4250    -0.6960    -5.1210 c3         0 194       0.190633
     14 C11         -1.7740    -1.4430    -3.8340 c3         0 194       0.119800
     15 N2          -3.1730    -1.8910    -3.8740 n3         0 194      -0.814700
     16 C12         -3.2330    -3.1520    -3.1240 c3         0 194       0.132167
     17 C13         -4.6040    -3.3160    -2.5170 cc         0 194       0.225500
     18 C14         -5.7720    -3.1530    -3.1640 cd         0 194      -0.256967
     19 C15         -6.7980    -3.3950    -2.2240 cd         0 194      -0.244633
     20 C16         -6.1950    -3.6940    -1.0560 cc         0 194       0.249500
     21 O           -4.8660    -3.6480    -1.2440 os         0 194      -0.355967
     22 C17         -6.9050    -4.0290     0.2290 c3         0 194      -0.096267
     23 C18         -8.2690    -3.3360     0.2450 c3         0 194      -0.088100
     24 C19         -7.1080    -5.5430     0.3120 c3         0 194      -0.088100
     25 C20         -6.1020    -3.5720     1.4170 cc         0 194       0.249500
     26 C21         -6.6100    -3.0870     2.5680 cd         0 194      -0.244633
     27 C22         -5.5110    -2.7730     3.4000 cd         0 194      -0.256967
     28 C23         -4.3990    -3.0880     2.7120 cc         0 194       0.225500
     29 C24         -2.9830    -2.9140     3.1960 c3         0 194       0.132167
     30 N3          -2.8830    -1.6930     4.0090 n3         0 194      -0.814700
     31 C25         -1.4900    -1.2400     3.9110 c3         0 194       0.119800
     32 C26         -1.0710    -0.5440     5.2070 c3         0 194       0.190633
     33 N4           0.1920     0.0920     5.0910 n3         0 194      -0.773600
     34 C27          0.2700     1.5020     5.2170 c3         0 194       0.190633
     35 C28         -0.2730     2.2240     3.9820 c3         0 194       0.119800
     36 N5           0.2070     3.6120     3.9720 n3         0 194      -0.814700
     37 C29         -0.8950     4.4350     3.4530 c3         0 194       0.132167
     38 C30         -0.3300     5.5920     2.6700 cc         0 194       0.225500
     39 C31          0.7570     6.3090     3.0080 cd         0 194      -0.256967
     40 C32          0.9250     7.2950     2.0090 cd         0 194      -0.244633
     41 C33         -0.0670     7.1160     1.1150 cc         0 194       0.249500
     42 O1          -0.8180     6.0780     1.5190 os         0 194      -0.355967
     43 C34          1.3720    -0.6800     5.2400 c3         0 194       0.190633
     44 C35          1.9140    -1.1740     3.8990 c3         0 194       0.119800
     45 N6           3.3390    -1.5090     4.0360 n3         0 194      -0.814700
     46 C36          3.5390    -2.7910     3.3470 c3         0 194       0.132167
     47 C37          4.8720    -2.7780     2.6440 cc         0 194       0.225500
     48 C38          6.0060    -2.2370     3.1260 cd         0 194      -0.256967
     49 C39          7.0080    -2.4550     2.1530 cd         0 194      -0.244633
     50 C40          6.4240    -3.1100     1.1320 cc         0 194       0.249500
     51 O2           5.1300    -3.2990     1.4350 os         0 194      -0.355967
     52 C41          7.1140    -3.5650    -0.1280 c3         0 194      -0.096267
     53 C42          8.3650    -2.7140    -0.3570 c3         0 194      -0.088100
     54 C43          7.5190    -5.0330     0.0170 c3         0 194      -0.088100
     55 C44          6.1870    -3.4190    -1.3050 cc         0 194       0.249500
     56 C45          5.7390    -4.4220    -2.0820 cd         0 194      -0.244633
     57 C46          4.9000    -3.8370    -3.0590 cd         0 194      -0.256967
     58 C47          4.8930    -2.5120    -2.8260 cc         0 194       0.225500
     59 C48          4.1400    -1.4790    -3.6250 c3         0 194       0.132167
     60 N7           2.7880    -1.9750    -3.9140 n3         0 194      -0.814700
     61 C49          1.9100    -0.7980    -3.9530 c3         0 194       0.119800
     62 C50          1.0150    -0.8670    -5.1930 c3         0 194       0.190633
     63 O3           5.6690    -2.2660    -1.7580 os         0 194      -0.355967
     64 O4          -4.7640    -3.5900     1.5220 os         0 194      -0.355967
     65 O5           0.3750     6.0980    -1.7260 os         0 194      -0.355967
     66 H            1.0540     9.5060     0.5090 hc         0 194       0.049033
     67 H1           1.8100     8.2400    -0.4880 hc         0 194       0.049033
     68 H2           0.7550     9.4570    -1.2450 hc         0 194       0.049033
     69 H3          -1.7060     9.4140    -0.8250 hc         0 194       0.049033
     70 H4          -2.4070     8.1650     0.2330 hc         0 194       0.049033
     71 H5          -1.4070     9.4630     0.9290 hc         0 194       0.049033
     72 H6          -2.3880     7.7230    -2.1020 ha         0 194       0.162667
     73 H7          -1.9530     5.7880    -3.9370 ha         0 194       0.161167
     74 H8           1.0970     4.7720    -4.4140 h1         0 194       0.064867
     75 H9           1.2230     3.8340    -2.9080 h1         0 194       0.064867
     76 H10         -1.2630     3.4940    -3.4260 hn         0 194       0.362467
     77 H11          1.1270     2.1520    -3.6510 h1         0 194       0.037617
     78 H12         -0.4670     1.5460    -3.1450 h1         0 194       0.037617
     79 H13         -0.9530     1.6750    -5.7670 h1         0 194       0.054783
     80 H14          0.8120     1.5430    -5.8690 h1         0 194       0.054783
     81 H15         -2.1820     0.0660    -5.3030 h1         0 194       0.054783
     82 H16         -1.4320    -1.4020    -5.9520 h1         0 194       0.054783
     83 H17         -1.1200    -2.3090    -3.7300 h1         0 194       0.037617
     84 H18         -1.6300    -0.7790    -2.9810 h1         0 194       0.037617
     85 H19         -3.7090    -1.2150    -3.3490 hn         0 194       0.362467
     86 H20         -3.0330    -3.9840    -3.7980 h1         0 194       0.064867
     87 H21         -2.4850    -3.1390    -2.3320 h1         0 194       0.064867
     88 H22         -5.9000    -2.8880    -4.2030 ha         0 194       0.161167
     89 H23         -7.8610    -3.3480    -2.4060 ha         0 194       0.162667
     90 H24         -8.8620    -3.6810    -0.6010 hc         0 194       0.049033
     91 H25         -8.7860    -3.5760     1.1740 hc         0 194       0.049033
     92 H26         -8.1290    -2.2570     0.1750 hc         0 194       0.049033
     93 H27         -6.1390    -6.0420     0.2890 hc         0 194       0.049033
     94 H28         -7.6220    -5.7900     1.2410 hc         0 194       0.049033
     95 H29         -7.7080    -5.8760    -0.5350 hc         0 194       0.049033
     96 H30         -7.6560    -2.9610     2.8080 ha         0 194       0.162667
     97 H31         -5.5560    -2.3580     4.3960 ha         0 194       0.161167
     98 H32         -2.6980    -3.7760     3.8000 h1         0 194       0.064867
     99 H33         -2.3130    -2.8360     2.3400 h1         0 194       0.064867
    100 H34         -3.4480    -0.9940     3.5510 hn         0 194       0.362467
    101 H35         -0.8420    -2.0980     3.7360 h1         0 194       0.037617
    102 H36         -1.3950    -0.5420     3.0800 h1         0 194       0.037617
    103 H37         -1.8210     0.2030     5.4660 h1         0 194       0.054783
    104 H38         -1.0210    -1.2840     6.0060 h1         0 194       0.054783
    105 H39         -0.3060     1.8120     6.0890 h1         0 194       0.054783
    106 H40          1.3120     1.7870     5.3630 h1         0 194       0.054783
    107 H41          0.0710     1.7140     3.0830 h1         0 194       0.037617
    108 H42         -1.3630     2.2170     4.0080 h1         0 194       0.037617
    109 H43          0.3400     3.8800     4.9350 hn         0 194       0.362467
    110 H44         -1.5250     3.8290     2.8020 h1         0 194       0.064867
    111 H45         -1.4890     4.8140     4.2840 h1         0 194       0.064867
    112 H46          1.3820     6.1610     3.8760 ha         0 194       0.161167
    113 H47          1.6990     8.0460     1.9690 ha         0 194       0.162667
    114 H48          2.1330    -0.0710     5.7270 h1         0 194       0.054783
    115 H49          1.1530    -1.5410     5.8720 h1         0 194       0.054783
    116 H50          1.3620    -2.0610     3.5880 h1         0 194       0.037617
    117 H51          1.7960    -0.3920     3.1490 h1         0 194       0.037617
    118 H52          3.8520    -0.8150     3.5130 hn         0 194       0.362467
    119 H53          3.5190    -3.6020     4.0750 h1         0 194       0.064867
    120 H54          2.7440    -2.9380     2.6160 h1         0 194       0.064867
    121 H55          6.1270    -1.7340     4.0730 ha         0 194       0.161167
    122 H56          8.0430    -2.1540     2.2170 ha         0 194       0.162667
    123 H57          9.0410    -2.8270     0.4900 hc         0 194       0.049033
    124 H58          8.8650    -3.0420    -1.2680 hc         0 194       0.049033
    125 H59          8.0780    -1.6670    -0.4560 hc         0 194       0.049033
    126 H60          6.6290    -5.6410     0.1850 hc         0 194       0.049033
    127 H61          8.0180    -5.3640    -0.8930 hc         0 194       0.049033
    128 H62          8.1970    -5.1420     0.8630 hc         0 194       0.049033
    129 H63          5.9740    -5.4710    -1.9790 ha         0 194       0.162667
    130 H64          4.3680    -4.3550    -3.8420 ha         0 194       0.161167
    131 H65          4.0730    -0.5540    -3.0510 h1         0 194       0.064867
    132 H66          4.6660    -1.2900    -4.5600 h1         0 194       0.064867
    133 H67          2.8110    -2.3510    -4.8500 hn         0 194       0.362467
    134 H68          1.2880    -0.7790    -3.0570 h1         0 194       0.037617
    135 H69          2.5160     0.1060    -3.9930 h1         0 194       0.037617
    136 H70          0.7210    -1.9030    -5.3600 h1         0 194       0.054783
    137 H71          1.5810    -0.5180    -6.0570 h1         0 194       0.054783
@<TRIPOS>BOND
     1     1     2 1   
     2     1    66 1   
     3     1    67 1   
     4     1    68 1   
     5     2     3 1   
     6     2     4 1   
     7     2    41 1   
     8     3    69 1   
     9     3    70 1   
    10     3    71 1   
    11     4     5 2   
    12     4    65 1   
    13     5     6 1   
    14     5    72 1   
    15     6     7 2   
    16     6    73 1   
    17     7     8 1   
    18     7    65 1   
    19     8     9 1   
    20     8    74 1   
    21     8    75 1   
    22     9    10 1   
    23     9    76 1   
    24    10    11 1   
    25    10    77 1   
    26    10    78 1   
    27    11    12 1   
    28    11    79 1   
    29    11    80 1   
    30    12    13 1   
    31    12    62 1   
    32    13    14 1   
    33    13    81 1   
    34    13    82 1   
    35    14    15 1   
    36    14    83 1   
    37    14    84 1   
    38    15    16 1   
    39    15    85 1   
    40    16    17 1   
    41    16    86 1   
    42    16    87 1   
    43    17    18 2   
    44    17    21 1   
    45    18    19 1   
    46    18    88 1   
    47    19    20 2   
    48    19    89 1   
    49    20    21 1   
    50    20    22 1   
    51    22    23 1   
    52    22    24 1   
    53    22    25 1   
    54    23    90 1   
    55    23    91 1   
    56    23    92 1   
    57    24    93 1   
    58    24    94 1   
    59    24    95 1   
    60    25    26 2   
    61    25    64 1   
    62    26    27 1   
    63    26    96 1   
    64    27    28 2   
    65    27    97 1   
    66    28    29 1   
    67    28    64 1   
    68    29    30 1   
    69    29    98 1   
    70    29    99 1   
    71    30    31 1   
    72    30   100 1   
    73    31    32 1   
    74    31   101 1   
    75    31   102 1   
    76    32    33 1   
    77    32   103 1   
    78    32   104 1   
    79    33    34 1   
    80    33    43 1   
    81    34    35 1   
    82    34   105 1   
    83    34   106 1   
    84    35    36 1   
    85    35   107 1   
    86    35   108 1   
    87    36    37 1   
    88    36   109 1   
    89    37    38 1   
    90    37   110 1   
    91    37   111 1   
    92    38    39 2   
    93    38    42 1   
    94    39    40 1   
    95    39   112 1   
    96    40    41 2   
    97    40   113 1   
    98    41    42 1   
    99    43    44 1   
   100    43   114 1   
   101    43   115 1   
   102    44    45 1   
   103    44   116 1   
   104    44   117 1   
   105    45    46 1   
   106    45   118 1   
   107    46    47 1   
   108    46   119 1   
   109    46   120 1   
   110    47    48 2   
   111    47    51 1   
   112    48    49 1   
   113    48   121 1   
   114    49    50 2   
   115    49   122 1   
   116    50    51 1   
   117    50    52 1   
   118    52    53 1   
   119    52    54 1   
   120    52    55 1   
   121    53   123 1   
   122    53   124 1   
   123    53   125 1   
   124    54   126 1   
   125    54   127 1   
   126    54   128 1   
   127    55    56 2   
   128    55    63 1   
   129    56    57 1   
   130    56   129 1   
   131    57    58 2   
   132    57   130 1   
   133    58    59 1   
   134    58    63 1   
   135    59    60 1   
   136    59   131 1   
   137    59   132 1   
   138    60    61 1   
   139    60   133 1   
   140    61    62 1   
   141    61   134 1   
   142    61   135 1   
   143    62   136 1   
   144    62   137 1   
@<TRIPOS>SUBSTRUCTURE
     1 194         1 TEMP              0 ****  ****    0 ROOT
