@<TRIPOS>MOLECULE
URE
  204   210     1     0     0
SMALL
bcc


@<TRIPOS>ATOM
      1 O           13.1120     1.9650    -2.8120 oh         0 URE      -0.599975
      2 C           12.1570     2.2910    -1.9270 c          0 URE       0.615475
      3 O1          12.3850     3.1060    -1.0640 o          0 URE      -0.555250
      4 C1          10.7990     1.6400    -2.0090 c3         0 URE       0.076450
      5 C2          10.8710     0.2510    -1.3700 c3         0 URE      -0.053925
      6 S           10.8340    -1.0200    -2.6640 ss         0 URE      -0.139100
      7 S1           9.4020    -2.2700    -1.8960 ss         0 URE      -0.139100
      8 C3          10.0240    -3.8720    -2.4780 c3         0 URE      -0.053925
      9 C4           9.5030    -4.9730    -1.5420 c3         0 URE       0.076450
     10 N            9.3440    -6.2220    -2.2640 n          0 URE      -0.557400
     11 C5           8.3830    -7.1290    -2.1230 c          0 URE       0.684700
     12 O2           8.4980    -8.1410    -2.8150 o          0 URE      -0.582225
     13 C6           7.1970    -7.0770    -1.2540 ca         0 URE      -0.157225
     14 C7           7.0420    -6.1450    -0.2380 ca         0 URE      -0.047250
     15 C8           5.8650    -6.0840     0.5090 ca         0 URE      -0.157225
     16 C9           4.8550    -7.0140     0.2900 ca         0 URE      -0.025875
     17 C10          5.0220    -7.9930    -0.6900 ca         0 URE      -0.155350
     18 C11          6.1810    -8.0260    -1.4580 ca         0 URE      -0.025875
     19 C12          3.9330    -8.9780    -0.9200 c          0 URE       0.685700
     20 O3           4.1860   -10.0450    -1.4340 o          0 URE      -0.587350
     21 N1           2.6850    -8.6270    -0.5700 n          0 URE      -0.564650
     22 C13          1.5190    -9.4970    -0.6780 c3         0 URE       0.073950
     23 C14          0.2670    -8.6730    -0.3460 c3         0 URE      -0.056550
     24 S2          -1.1080    -9.7810     0.0560 ss         0 URE      -0.135100
     25 S3          -2.4780    -8.4170     0.7410 ss         0 URE      -0.135100
     26 C15         -3.8750    -8.7940    -0.3540 c3         0 URE      -0.056550
     27 C16         -5.1900    -8.5490     0.3980 c3         0 URE       0.073950
     28 N2          -6.3060    -8.9420    -0.4570 n          0 URE      -0.564650
     29 C17         -7.2880    -8.1410    -0.8610 c          0 URE       0.685700
     30 O4          -7.9790    -8.5490    -1.7890 o          0 URE      -0.587350
     31 C18         -7.6600    -6.8370    -0.2930 ca         0 URE      -0.155350
     32 C19         -8.4670    -5.9810    -1.0550 ca         0 URE      -0.025875
     33 C20         -8.8270    -4.7280    -0.5690 ca         0 URE      -0.157225
     34 C21         -8.3870    -4.3270     0.6900 ca         0 URE      -0.047250
     35 C22         -7.6100    -5.1730     1.4720 ca         0 URE      -0.157225
     36 C23         -7.2720    -6.4390     0.9820 ca         0 URE      -0.025875
     37 C24         -7.1000    -4.7600     2.7900 c          0 URE       0.684700
     38 O5          -6.9170    -5.6230     3.6320 o          0 URE      -0.582225
     39 N3          -6.7660    -3.5110     3.1200 n          0 URE      -0.557400
     40 C25         -6.5580    -2.4160     2.1850 c3         0 URE       0.076450
     41 C26         -6.1730    -1.1540     2.9690 c3         0 URE      -0.053925
     42 S4          -5.2680    -0.0400     1.8580 ss         0 URE      -0.139100
     43 S5          -6.8340     0.7130     0.7690 ss         0 URE      -0.139100
     44 C27         -7.3640     2.0570     1.8690 c3         0 URE      -0.053925
     45 C28         -6.6470     3.3450     1.4520 c3         0 URE       0.076450
     46 N4          -6.1010     4.0270     2.6200 n          0 URE      -0.557400
     47 C29         -5.6030     5.2640     2.5530 c          0 URE       0.684700
     48 O6          -4.8940     5.6470     3.4590 o          0 URE      -0.582225
     49 C30         -5.9090     6.1990     1.4580 ca         0 URE      -0.157225
     50 C31         -4.9700     7.1380     1.0390 ca         0 URE      -0.025875
     51 C32         -5.2580     7.9840    -0.0310 ca         0 URE      -0.155350
     52 C33         -6.4940     7.9190    -0.6770 ca         0 URE      -0.025875
     53 C34         -7.4440     6.9950    -0.2460 ca         0 URE      -0.157225
     54 C35         -7.1600     6.1770     0.8460 ca         0 URE      -0.047250
     55 C36         -8.7170     6.8080    -0.9670 c          0 URE       0.684700
     56 O7          -8.9080     7.4450    -1.9790 o          0 URE      -0.582225
     57 N5          -9.6560     5.9710    -0.5310 n          0 URE      -0.557400
     58 C37        -10.5420     5.1720    -1.3620 c3         0 URE       0.076450
     59 C38         -9.9080     3.7960    -1.6020 c3         0 URE      -0.053925
     60 S6         -11.1970     2.5220    -1.5820 ss         0 URE      -0.139100
     61 S7         -10.0670     0.8500    -1.9440 ss         0 URE      -0.139100
     62 C39        -11.0130    -0.3770    -1.0020 c3         0 URE      -0.053925
     63 C40        -10.9130    -1.7420    -1.6840 c3         0 URE       0.076450
     64 N6         -10.1040    -2.6520    -0.8720 n          0 URE      -0.557400
     65 C41         -9.6640    -3.8210    -1.3850 c          0 URE       0.684700
     66 O8          -9.9580    -4.1380    -2.5230 o          0 URE      -0.582225
     67 C42        -12.3020    -2.3080    -1.8490 c          0 URE       0.615475
     68 O9         -13.0830    -1.8900    -2.8580 oh         0 URE      -0.599975
     69 O10        -12.7120    -3.1380    -1.0720 o          0 URE      -0.555250
     70 C43        -11.8620     4.9920    -0.6550 c          0 URE       0.615475
     71 O11        -12.9560     4.6520    -1.3530 oh         0 URE      -0.599975
     72 O12        -11.9340     5.1530     0.5410 o          0 URE      -0.555250
     73 C44         -4.2260     8.9290    -0.5120 c          0 URE       0.685700
     74 O13         -4.5260     9.8230    -1.2760 o          0 URE      -0.587350
     75 N7          -2.9490     8.7640    -0.1180 n          0 URE      -0.564650
     76 C45         -1.8900     9.6790    -0.5460 c3         0 URE       0.073950
     77 C46         -0.6660     9.4770     0.3540 c3         0 URE      -0.056550
     78 S8           0.8370     9.8870    -0.5720 ss         0 URE      -0.135100
     79 S9           2.0120     8.2830    -0.0690 ss         0 URE      -0.135100
     80 C47          3.4890     8.6540    -1.0530 c3         0 URE      -0.056550
     81 C48          4.7440     8.3310    -0.2320 c3         0 URE       0.073950
     82 N8           5.9260     8.7050    -0.9980 n          0 URE      -0.564650
     83 C49          6.9150     7.8970    -1.3640 c          0 URE       0.685700
     84 O14          7.6790     8.3280    -2.2220 o          0 URE      -0.587350
     85 C50          7.2210     6.5600    -0.8320 ca         0 URE      -0.155350
     86 C51          8.1030     5.7400    -1.5510 ca         0 URE      -0.025875
     87 C52          8.4140     4.4660    -1.0850 ca         0 URE      -0.157225
     88 C53          7.8380     3.9970     0.0960 ca         0 URE      -0.047250
     89 C54          6.9810     4.8040     0.8320 ca         0 URE      -0.157225
     90 C55          6.6970     6.0960     0.3640 ca         0 URE      -0.025875
     91 C56          6.3390     4.3730     2.0820 c          0 URE       0.684700
     92 O15          5.4940     5.1540     2.5350 o          0 URE      -0.582225
     93 N9           6.5420     3.2850     2.8060 n          0 URE      -0.557400
     94 C57          7.7720     2.5630     3.0600 c3         0 URE       0.076450
     95 C58          7.9600     1.4350     2.0520 c3         0 URE      -0.053925
     96 S10          6.4550     1.2430     1.0580 ss         0 URE      -0.139100
     97 S11          5.5650    -0.3040     2.0660 ss         0 URE      -0.139100
     98 C59          6.6220    -1.6690     1.5220 c3         0 URE      -0.053925
     99 C60          6.4250    -2.8750     2.4480 c3         0 URE       0.076450
    100 N10          6.6650    -4.0960     1.6770 n          0 URE      -0.557400
    101 C61          5.6890    -5.0050     1.5060 c          0 URE       0.684700
    102 O16          4.6700    -4.9470     2.1660 o          0 URE      -0.582225
    103 C62          7.4070    -2.7960     3.5880 c          0 URE       0.615475
    104 O17          7.1560    -1.9930     4.6340 oh         0 URE      -0.599975
    105 O18          8.4190    -3.4550     3.5610 o          0 URE      -0.555250
    106 C63          8.9620     3.4850     3.0500 c          0 URE       0.615475
    107 O19         10.1050     3.1110     3.6450 oh         0 URE      -0.599975
    108 O20          8.8880     4.5620     2.5070 o          0 URE      -0.555250
    109 C64          9.3570     3.6100    -1.8390 c          0 URE       0.684700
    110 O21          9.7230     3.9560    -2.9470 o          0 URE      -0.582225
    111 N11          9.8190     2.4650    -1.2990 n          0 URE      -0.557400
    112 C65          4.7030     9.1290     1.0490 c          0 URE       0.614850
    113 O22          3.9500     8.7080     2.0780 oh         0 URE      -0.597100
    114 O23          5.3470    10.1460     1.1480 o          0 URE      -0.552500
    115 C66         -1.5060     9.3820    -1.9720 c          0 URE       0.614850
    116 O24         -0.8690    10.3110    -2.7030 oh         0 URE      -0.597100
    117 O25         -1.7700     8.3080    -2.4590 o          0 URE      -0.552500
    118 C67         -5.5250     3.0010     0.5030 c          0 URE       0.615475
    119 O26         -5.7890     2.7640    -0.7920 oh         0 URE      -0.599975
    120 O27         -4.3880     2.9400     0.9080 o          0 URE      -0.555250
    121 C68         -5.4330    -2.7570     1.2400 c          0 URE       0.615475
    122 O28         -5.3210    -2.1110     0.0690 oh         0 URE      -0.599975
    123 O29         -4.6320    -3.6120     1.5370 o          0 URE      -0.555250
    124 C69         -5.1940    -9.3800     1.6560 c          0 URE       0.614850
    125 O30         -4.5260    -8.9580     2.7410 oh         0 URE      -0.597100
    126 O31         -5.8000   -10.4250     1.6880 o          0 URE      -0.552500
    127 C70          1.3850   -10.0390    -2.0760 c          0 URE       0.614850
    128 O32          0.6530   -11.1410    -2.3020 oh         0 URE      -0.597100
    129 O33          1.9360    -9.4820    -2.9960 o          0 URE      -0.552500
    130 C71         10.4990    -5.1610    -0.4240 c          0 URE       0.615475
    131 O34         10.5100    -4.3120     0.6160 oh         0 URE      -0.599975
    132 O35         11.2870    -6.0770    -0.4640 o          0 URE      -0.555250
    133 H           13.9830     2.3820    -2.7590 ho         0 URE       0.465000
    134 H1          10.5060     1.5430    -3.0540 h1         0 URE       0.123575
    135 H2          11.8030     0.1640    -0.8080 h1         0 URE       0.102762
    136 H3          10.0290     0.1130    -0.6950 h1         0 URE       0.102762
    137 H4           9.6660    -4.0580    -3.4880 h1         0 URE       0.102762
    138 H5          11.1120    -3.8690    -2.4600 h1         0 URE       0.102762
    139 H6           8.5510    -4.6350    -1.1420 h1         0 URE       0.123575
    140 H7          10.0300    -6.4230    -2.9450 hn         0 URE       0.332250
    141 H8           7.8450    -5.4810     0.0320 ha         0 URE       0.171000
    142 H9           3.9480    -6.9800     0.8750 ha         0 URE       0.175375
    143 H10          6.3060    -8.7820    -2.2190 ha         0 URE       0.175375
    144 H11          2.5470    -7.7220    -0.2200 hn         0 URE       0.331750
    145 H12          1.6020   -10.3200     0.0310 h1         0 URE       0.126200
    146 H13          0.4780    -8.0210     0.5000 h1         0 URE       0.105575
    147 H14          0.0030    -8.0680    -1.2140 h1         0 URE       0.105575
    148 H15         -3.8350    -8.1500    -1.2300 h1         0 URE       0.105575
    149 H16         -3.8200    -9.8380    -0.6610 h1         0 URE       0.105575
    150 H17         -5.2570    -7.4920     0.6480 h1         0 URE       0.126200
    151 H18         -6.3260    -9.8720    -0.7690 hn         0 URE       0.331750
    152 H19         -8.8220    -6.3120    -2.0200 ha         0 URE       0.175375
    153 H20         -8.6760    -3.3580     1.0690 ha         0 URE       0.171000
    154 H21         -6.7330    -7.1200     1.6210 ha         0 URE       0.175375
    155 H22         -6.6580    -3.3140     4.0720 hn         0 URE       0.332250
    156 H23         -7.4670    -2.2180     1.6240 h1         0 URE       0.123575
    157 H24         -7.0750    -0.6610     3.3280 h1         0 URE       0.102762
    158 H25         -5.5390    -1.4280     3.8090 h1         0 URE       0.102762
    159 H26         -8.4430     2.1970     1.7700 h1         0 URE       0.102762
    160 H27         -7.1210     1.8110     2.8980 h1         0 URE       0.102762
    161 H28         -7.3600     3.9850     0.9360 h1         0 URE       0.123575
    162 H29         -6.0950     3.5680     3.4720 hn         0 URE       0.332250
    163 H30         -4.0210     7.2150     1.5480 ha         0 URE       0.175375
    164 H31         -6.7050     8.5820    -1.5020 ha         0 URE       0.175375
    165 H32         -7.9400     5.5450     1.2420 ha         0 URE       0.171000
    166 H33         -9.7610     5.8950     0.4390 hn         0 URE       0.332250
    167 H34        -10.7090     5.6680    -2.3160 h1         0 URE       0.123575
    168 H35         -9.3990     3.7930    -2.5650 h1         0 URE       0.102762
    169 H36         -9.1880     3.5990    -0.8080 h1         0 URE       0.102762
    170 H37        -10.6240    -0.4400     0.0120 h1         0 URE       0.102762
    171 H38        -12.0630    -0.0730    -0.9720 h1         0 URE       0.102762
    172 H39        -10.4490    -1.6310    -2.6630 h1         0 URE       0.123575
    173 H40         -9.8950    -2.4160     0.0450 hn         0 URE       0.332250
    174 H41        -13.9730    -2.2530    -2.9630 ho         0 URE       0.465000
    175 H42        -13.8020     4.5360    -0.9000 ho         0 URE       0.465000
    176 H43         -2.7200     8.0180     0.4630 hn         0 URE       0.331750
    177 H44         -2.2360    10.7080    -0.4650 h1         0 URE       0.126200
    178 H45         -0.7470    10.1230     1.2260 h1         0 URE       0.105575
    179 H46         -0.6220     8.4350     0.6750 h1         0 URE       0.105575
    180 H47          3.4860     8.0510    -1.9590 h1         0 URE       0.105575
    181 H48          3.4940     9.7120    -1.3130 h1         0 URE       0.105575
    182 H49          4.7500     7.2690    -0.0050 h1         0 URE       0.126200
    183 H50          5.9930     9.6460    -1.2770 hn         0 URE       0.331750
    184 H51          8.5390     6.1020    -2.4690 ha         0 URE       0.175375
    185 H52          8.0560     2.9930     0.4210 ha         0 URE       0.171000
    186 H53          6.0780     6.7340     0.9760 ha         0 URE       0.175375
    187 H54          5.7310     2.9070     3.2390 hn         0 URE       0.332250
    188 H55          7.7060     2.1100     4.0630 h1         0 URE       0.123575
    189 H56          8.8070     1.6510     1.4040 h1         0 URE       0.102762
    190 H57          8.1560     0.5030     2.5890 h1         0 URE       0.102762
    191 H58          6.3570    -1.9520     0.5020 h1         0 URE       0.102762
    192 H59          7.6670    -1.3590     1.5510 h1         0 URE       0.102762
    193 H60          5.4090    -2.8750     2.8350 h1         0 URE       0.123575
    194 H61          7.5450    -4.2470     1.2930 hn         0 URE       0.332250
    195 H62          7.7860    -1.9420     5.3660 ho         0 URE       0.465000
    196 H63         10.8700     3.7030     3.6380 ho         0 URE       0.465000
    197 H64          9.5010     2.1810    -0.4270 hn         0 URE       0.332250
    198 H65          3.9230     9.2200     2.8980 ho         0 URE       0.464750
    199 H66         -0.6220    10.1210    -3.6180 ho         0 URE       0.464750
    200 H67         -5.0700     2.5430    -1.3990 ho         0 URE       0.465000
    201 H68         -4.6000    -2.3290    -0.5370 ho         0 URE       0.465000
    202 H69         -4.5290    -9.4910     3.5480 ho         0 URE       0.464750
    203 H70          0.5670   -11.4890    -3.2000 ho         0 URE       0.464750
    204 H71         11.1480    -4.4330     1.3320 ho         0 URE       0.465000
@<TRIPOS>BOND
     1     1     2 1   
     2     1   133 1   
     3     2     3 2   
     4     2     4 1   
     5     4     5 1   
     6     4   111 1   
     7     4   134 1   
     8     5     6 1   
     9     5   135 1   
    10     5   136 1   
    11     6     7 1   
    12     7     8 1   
    13     8     9 1   
    14     8   137 1   
    15     8   138 1   
    16     9    10 1   
    17     9   130 1   
    18     9   139 1   
    19    10    11 1   
    20    10   140 1   
    21    11    12 2   
    22    11    13 1   
    23    13    14 ar  
    24    13    18 ar  
    25    14    15 ar  
    26    14   141 1   
    27    15    16 ar  
    28    15   101 1   
    29    16    17 ar  
    30    16   142 1   
    31    17    18 ar  
    32    17    19 1   
    33    18   143 1   
    34    19    20 2   
    35    19    21 1   
    36    21    22 1   
    37    21   144 1   
    38    22    23 1   
    39    22   127 1   
    40    22   145 1   
    41    23    24 1   
    42    23   146 1   
    43    23   147 1   
    44    24    25 1   
    45    25    26 1   
    46    26    27 1   
    47    26   148 1   
    48    26   149 1   
    49    27    28 1   
    50    27   124 1   
    51    27   150 1   
    52    28    29 1   
    53    28   151 1   
    54    29    30 2   
    55    29    31 1   
    56    31    32 ar  
    57    31    36 ar  
    58    32    33 ar  
    59    32   152 1   
    60    33    34 ar  
    61    33    65 1   
    62    34    35 ar  
    63    34   153 1   
    64    35    36 ar  
    65    35    37 1   
    66    36   154 1   
    67    37    38 2   
    68    37    39 1   
    69    39    40 1   
    70    39   155 1   
    71    40    41 1   
    72    40   121 1   
    73    40   156 1   
    74    41    42 1   
    75    41   157 1   
    76    41   158 1   
    77    42    43 1   
    78    43    44 1   
    79    44    45 1   
    80    44   159 1   
    81    44   160 1   
    82    45    46 1   
    83    45   118 1   
    84    45   161 1   
    85    46    47 1   
    86    46   162 1   
    87    47    48 2   
    88    47    49 1   
    89    49    50 ar  
    90    49    54 ar  
    91    50    51 ar  
    92    50   163 1   
    93    51    52 ar  
    94    51    73 1   
    95    52    53 ar  
    96    52   164 1   
    97    53    54 ar  
    98    53    55 1   
    99    54   165 1   
   100    55    56 2   
   101    55    57 1   
   102    57    58 1   
   103    57   166 1   
   104    58    59 1   
   105    58    70 1   
   106    58   167 1   
   107    59    60 1   
   108    59   168 1   
   109    59   169 1   
   110    60    61 1   
   111    61    62 1   
   112    62    63 1   
   113    62   170 1   
   114    62   171 1   
   115    63    64 1   
   116    63    67 1   
   117    63   172 1   
   118    64    65 1   
   119    64   173 1   
   120    65    66 2   
   121    67    68 1   
   122    67    69 2   
   123    68   174 1   
   124    70    71 1   
   125    70    72 2   
   126    71   175 1   
   127    73    74 2   
   128    73    75 1   
   129    75    76 1   
   130    75   176 1   
   131    76    77 1   
   132    76   115 1   
   133    76   177 1   
   134    77    78 1   
   135    77   178 1   
   136    77   179 1   
   137    78    79 1   
   138    79    80 1   
   139    80    81 1   
   140    80   180 1   
   141    80   181 1   
   142    81    82 1   
   143    81   112 1   
   144    81   182 1   
   145    82    83 1   
   146    82   183 1   
   147    83    84 2   
   148    83    85 1   
   149    85    86 ar  
   150    85    90 ar  
   151    86    87 ar  
   152    86   184 1   
   153    87    88 ar  
   154    87   109 1   
   155    88    89 ar  
   156    88   185 1   
   157    89    90 ar  
   158    89    91 1   
   159    90   186 1   
   160    91    92 2   
   161    91    93 1   
   162    93    94 1   
   163    93   187 1   
   164    94    95 1   
   165    94   106 1   
   166    94   188 1   
   167    95    96 1   
   168    95   189 1   
   169    95   190 1   
   170    96    97 1   
   171    97    98 1   
   172    98    99 1   
   173    98   191 1   
   174    98   192 1   
   175    99   100 1   
   176    99   103 1   
   177    99   193 1   
   178   100   101 1   
   179   100   194 1   
   180   101   102 2   
   181   103   104 1   
   182   103   105 2   
   183   104   195 1   
   184   106   107 1   
   185   106   108 2   
   186   107   196 1   
   187   109   110 2   
   188   109   111 1   
   189   111   197 1   
   190   112   113 1   
   191   112   114 2   
   192   113   198 1   
   193   115   116 1   
   194   115   117 2   
   195   116   199 1   
   196   118   119 1   
   197   118   120 2   
   198   119   200 1   
   199   121   122 1   
   200   121   123 2   
   201   122   201 1   
   202   124   125 1   
   203   124   126 2   
   204   125   202 1   
   205   127   128 1   
   206   127   129 2   
   207   128   203 1   
   208   130   131 1   
   209   130   132 2   
   210   131   204 1   
@<TRIPOS>SUBSTRUCTURE
     1 URE         1 TEMP              0 ****  ****    0 ROOT
