@<TRIPOS>MOLECULE
53
   68    72     1     0     0
SMALL
bcc


@<TRIPOS>ATOM
      1 H           -0.1290    -6.6350    -0.1570 ha         0 53        0.146000
      2 C           -0.1030    -5.5570    -0.0920 ca         0 53       -0.141000
      3 C1           1.1030    -4.8950    -0.1980 ca         0 53       -0.065500
      4 C2           1.1420    -3.5010    -0.1210 ca         0 53       -0.147600
      5 C3          -0.0360    -2.7840     0.0670 ca         0 53       -0.079000
      6 C4          -1.2490    -3.4610     0.1720 ca         0 53       -0.147600
      7 C5          -1.2780    -4.8540     0.0900 ca         0 53       -0.065500
      8 C6          -2.5020    -2.6960     0.3610 c          0 53        0.668200
      9 O           -3.5630    -3.2630     0.5380 o          0 53       -0.596600
     10 N           -2.4280    -1.3280     0.3310 n          0 53       -0.563400
     11 C7          -3.7060    -0.6220     0.5800 c3         0 53        0.093200
     12 H1          -3.7930    -0.4110     1.6420 h1         0 53        0.084700
     13 C8          -4.8680    -1.5010     0.1210 c3         0 53       -0.097650
     14 C9          -5.7890    -0.6830    -0.7880 c3         0 53       -0.077900
     15 C10         -6.1980     0.6120    -0.0790 c3         0 53       -0.077900
     16 C11         -4.9620     1.4910     0.1350 c3         0 53       -0.097650
     17 C12         -3.7100     0.6870    -0.2130 c3         0 53        0.093200
     18 H2          -3.7080     0.4610    -1.2810 h1         0 53        0.084700
     19 N1          -2.5030     1.4620     0.1130 n          0 53       -0.563400
     20 C13         -2.4820     2.7880    -0.1700 c          0 53        0.668200
     21 O1          -3.5040     3.3700    -0.4750 o          0 53       -0.596600
     22 C14         -1.1940     3.5140    -0.1010 ca         0 53       -0.147600
     23 C15         -1.1630     4.9070    -0.1790 ca         0 53       -0.065500
     24 C16          0.0450     5.5730    -0.1180 ca         0 53       -0.141000
     25 H3           0.0630     6.6510    -0.1730 ha         0 53        0.146000
     26 C17          1.2280     4.8770     0.0120 ca         0 53       -0.065500
     27 C18          1.2100     3.4800     0.0790 ca         0 53       -0.147600
     28 C19         -0.0040     2.7980     0.0250 ca         0 53       -0.079000
     29 C20          2.4770     2.7300     0.2140 c          0 53        0.668200
     30 O2           3.5160     3.3310     0.4070 o          0 53       -0.596600
     31 N2           2.4910     1.3900     0.1250 n          0 53       -0.563400
     32 C21          3.7000     0.6210     0.4110 c3         0 53        0.093200
     33 H4           3.7390     0.3940     1.4800 h1         0 53        0.084700
     34 C22          4.9420     1.4320     0.0280 c3         0 53       -0.097650
     35 C23          6.1940     0.6220     0.3670 c3         0 53       -0.077900
     36 C24          6.1810    -0.6970    -0.4080 c3         0 53       -0.077900
     37 C25          4.9370    -1.5040    -0.0310 c3         0 53       -0.097650
     38 C26          3.6870    -0.6900    -0.3780 c3         0 53        0.093200
     39 H5           3.6980    -0.4620    -1.4490 h1         0 53        0.084700
     40 N3           2.4830    -1.4560    -0.0620 n          0 53       -0.563400
     41 C27          2.4320    -2.7860    -0.2480 c          0 53        0.668200
     42 O3           3.4450    -3.4010    -0.5210 o          0 53       -0.596600
     43 H6           2.0160    -5.4540    -0.3400 ha         0 53        0.155500
     44 H7          -0.0100    -1.7060     0.1310 ha         0 53        0.143000
     45 H8          -2.2160    -5.3820     0.1780 ha         0 53        0.155500
     46 H9          -1.5990    -0.8560     0.1580 hn         0 53        0.316000
     47 H10         -4.4800    -2.3580    -0.4300 hc         0 53        0.051825
     48 H11         -5.4280    -1.8480     0.9890 hc         0 53        0.051825
     49 H12         -5.2640    -0.4410    -1.7120 hc         0 53        0.046950
     50 H13         -6.6800    -1.2670    -1.0200 hc         0 53        0.046950
     51 H14         -6.9230     1.1480    -0.6920 hc         0 53        0.046950
     52 H15         -6.6450     0.3720     0.8860 hc         0 53        0.046950
     53 H16         -5.0220     2.3680    -0.5090 hc         0 53        0.051825
     54 H17         -4.9140     1.8050     1.1780 hc         0 53        0.051825
     55 H18         -1.7360     1.0320     0.5240 hn         0 53        0.316000
     56 H19         -2.0820     5.4630    -0.2880 ha         0 53        0.155500
     57 H20          2.1660     5.4090     0.0620 ha         0 53        0.155500
     58 H21         -0.0230     1.7200     0.0790 ha         0 53        0.143000
     59 H22          1.6810     0.9230    -0.1340 hn         0 53        0.316000
     60 H23          4.9230     1.6440    -1.0410 hc         0 53        0.051825
     61 H24          4.9520     2.3690     0.5860 hc         0 53        0.051825
     62 H25          7.0810     1.1940     0.0940 hc         0 53        0.046950
     63 H26          6.2130     0.4140     1.4370 hc         0 53        0.046950
     64 H27          6.1680    -0.4890    -1.4780 hc         0 53        0.046950
     65 H28          7.0740    -1.2710    -0.1620 hc         0 53        0.046950
     66 H29          4.9270    -2.4410    -0.5890 hc         0 53        0.051825
     67 H30          4.9490    -1.7150     1.0380 hc         0 53        0.051825
     68 H31          1.7050    -0.9950     0.2880 hn         0 53        0.316000
@<TRIPOS>BOND
     1     1     2 1   
     2     2     3 ar  
     3     2     7 ar  
     4     3     4 ar  
     5     3    43 1   
     6     4     5 ar  
     7     4    41 1   
     8     5     6 ar  
     9     5    44 1   
    10     6     7 ar  
    11     6     8 1   
    12     7    45 1   
    13     8     9 2   
    14     8    10 1   
    15    10    11 1   
    16    10    46 1   
    17    11    12 1   
    18    11    13 1   
    19    11    17 1   
    20    13    14 1   
    21    13    47 1   
    22    13    48 1   
    23    14    15 1   
    24    14    49 1   
    25    14    50 1   
    26    15    16 1   
    27    15    51 1   
    28    15    52 1   
    29    16    17 1   
    30    16    53 1   
    31    16    54 1   
    32    17    18 1   
    33    17    19 1   
    34    19    20 1   
    35    19    55 1   
    36    20    21 2   
    37    20    22 1   
    38    22    23 ar  
    39    22    28 ar  
    40    23    24 ar  
    41    23    56 1   
    42    24    25 1   
    43    24    26 ar  
    44    26    27 ar  
    45    26    57 1   
    46    27    28 ar  
    47    27    29 1   
    48    28    58 1   
    49    29    30 2   
    50    29    31 1   
    51    31    32 1   
    52    31    59 1   
    53    32    33 1   
    54    32    34 1   
    55    32    38 1   
    56    34    35 1   
    57    34    60 1   
    58    34    61 1   
    59    35    36 1   
    60    35    62 1   
    61    35    63 1   
    62    36    37 1   
    63    36    64 1   
    64    36    65 1   
    65    37    38 1   
    66    37    66 1   
    67    37    67 1   
    68    38    39 1   
    69    38    40 1   
    70    40    41 1   
    71    40    68 1   
    72    41    42 2   
@<TRIPOS>SUBSTRUCTURE
     1 53          1 TEMP              0 ****  ****    0 ROOT
