@<TRIPOS>MOLECULE
137
   81    90     1     0     0
SMALL
bcc


@<TRIPOS>ATOM
      1 O            1.9740     2.2560     0.0350 os         0 137      -0.361000
      2 C            2.8370     3.0890     0.2150 c2         0 137       0.311000
      3 N            2.5290     4.4150     0.2060 nh         0 137      -0.305000
      4 C1           1.1680     4.7490     0.1200 c2         0 137       0.123000
      5 C2           0.8010     6.0860    -0.0060 c2         0 137      -0.165000
      6 C3          -0.5420     6.4130    -0.0890 c2         0 137      -0.082000
      7 C4          -1.4760     5.3900    -0.0360 c2         0 137      -0.162000
      8 C5          -1.0420     4.0750     0.1040 c2         0 137      -0.031000
      9 N1           0.2570     3.7970     0.1700 n2         0 137      -0.174000
     10 C6          -2.0350     2.9810     0.1950 c2         0 137       0.355000
     11 O1          -1.6630     1.8450     0.4170 os         0 137      -0.338000
     12 N2          -3.3460     3.2340     0.0340 n3         0 137      -0.318000
     13 C7          -3.9140     4.4550    -0.5560 c3         0 137      -0.029000
     14 C8          -5.3720     4.1520    -0.9330 c3         0 137      -0.178000
     15 C9          -5.6810     2.7470    -0.3870 c3         0 137      -0.164000
     16 C10         -4.4470     2.3570     0.4440 c3         0 137       0.001000
     17 C11         -4.0960     0.9130     0.2200 c2         0 137       0.311000
     18 O2          -2.9450     0.5820     0.0290 os         0 137      -0.361000
     19 N3          -5.0890    -0.0170     0.2340 nh         0 137      -0.305000
     20 C12         -4.6980    -1.3630     0.1540 c2         0 137       0.123000
     21 C13         -5.6730    -2.3510     0.0510 c2         0 137      -0.165000
     22 C14         -5.2860    -3.6780    -0.0270 c2         0 137      -0.082000
     23 C15         -3.9320    -3.9750     0.0090 c2         0 137      -0.162000
     24 C16         -3.0080    -2.9400     0.1280 c2         0 137      -0.031000
     25 N4          -3.4170    -1.6760     0.1900 n2         0 137      -0.174000
     26 C17         -1.5630    -3.2520     0.1970 c2         0 137       0.355000
     27 O3          -0.7640    -2.3630     0.4120 os         0 137      -0.338000
     28 N5          -1.1290    -4.5120     0.0230 n3         0 137      -0.318000
     29 C18         -1.9080    -5.6110    -0.5680 c3         0 137      -0.029000
     30 C19         -0.9170    -6.7140    -0.9700 c3         0 137      -0.178000
     31 C20          0.4570    -6.2870    -0.4250 c3         0 137      -0.164000
     32 C21          0.1840    -5.0310     0.4200 c3         0 137       0.001000
     33 C22          1.2580    -4.0040     0.1990 c2         0 137       0.311000
     34 O4           0.9690    -2.8400     0.0180 os         0 137      -0.361000
     35 N6           2.5600    -4.4000     0.2060 nh         0 137      -0.305000
     36 C23          3.5310    -3.3870     0.1330 c2         0 137       0.123000
     37 C24          4.8740    -3.7370     0.0260 c2         0 137      -0.165000
     38 C25          5.8300    -2.7380    -0.0450 c2         0 137      -0.082000
     39 C26          5.4100    -1.4180     0.0010 c2         0 137      -0.162000
     40 C27          4.0520    -1.1360     0.1220 c2         0 137      -0.031000
     41 N7           3.1610    -2.1220     0.1770 n2         0 137      -0.174000
     42 C28          3.5990     0.2710     0.2030 c2         0 137       0.355000
     43 O5           2.4280     0.5170     0.4140 os         0 137      -0.338000
     44 N8           4.4750     1.2790     0.0460 n3         0 137      -0.318000
     45 C29          5.8220     1.1600    -0.5300 c3         0 137      -0.029000
     46 C30          6.2890     2.5730    -0.9110 c3         0 137      -0.178000
     47 C31          5.2220     3.5440    -0.3760 c3         0 137      -0.164000
     48 C32          4.2600     2.6730     0.4580 c3         0 137       0.001000
     49 H            3.2170     5.0970     0.2570 hn         0 137       0.263000
     50 H1           1.5540     6.8580    -0.0370 ha         0 137       0.185000
     51 H2          -0.8540     7.4420    -0.1920 ha         0 137       0.149000
     52 H3          -2.5310     5.6120    -0.1020 ha         0 137       0.163000
     53 H4          -3.8820     5.2670     0.1710 h1         0 137       0.098500
     54 H5          -3.3510     4.7330    -1.4470 h1         0 137       0.098500
     55 H6          -6.0370     4.8850    -0.4770 hc         0 137       0.096500
     56 H7          -5.4880     4.1660    -2.0170 hc         0 137       0.096500
     57 H8          -6.5690     2.7750     0.2450 hc         0 137       0.109000
     58 H9          -5.8210     2.0450    -1.2090 hc         0 137       0.109000
     59 H10         -4.6600     2.5250     1.5020 h1         0 137       0.151000
     60 H11         -6.0230     0.2380     0.2960 hn         0 137       0.263000
     61 H12         -6.7200    -2.0860     0.0310 ha         0 137       0.185000
     62 H13         -6.0220    -4.4640    -0.1130 ha         0 137       0.149000
     63 H14         -3.5970    -5.0000    -0.0540 ha         0 137       0.163000
     64 H15         -2.6160    -5.9990     0.1640 h1         0 137       0.098500
     65 H16         -2.4420    -5.2550    -1.4480 h1         0 137       0.098500
     66 H17         -1.2150    -7.6650    -0.5280 hc         0 137       0.096500
     67 H18         -0.8770    -6.8040    -2.0560 hc         0 137       0.096500
     68 H19          0.8790    -7.0770     0.1960 hc         0 137       0.109000
     69 H20          1.1320    -6.0500    -1.2470 hc         0 137       0.109000
     70 H21          0.1510    -5.3110     1.4760 h1         0 137       0.151000
     71 H22          2.8060    -5.3360     0.2600 hn         0 137       0.263000
     72 H23          5.1670    -4.7760    -0.0010 ha         0 137       0.185000
     73 H24          6.8780    -2.9820    -0.1330 ha         0 137       0.149000
     74 H25          6.1300    -0.6150    -0.0560 ha         0 137       0.163000
     75 H26          6.5030     0.7310     0.2050 h1         0 137       0.098500
     76 H27          5.7900     0.5290    -1.4180 h1         0 137       0.098500
     77 H28          7.2530     2.7850    -0.4500 hc         0 137       0.096500
     78 H29          6.3660     2.6620    -1.9950 hc         0 137       0.096500
     79 H30          5.6850     4.3010     0.2570 hc         0 137       0.109000
     80 H31          4.6900     4.0130    -1.2040 hc         0 137       0.109000
     81 H32          4.5070     2.7820     1.5170 h1         0 137       0.151000
@<TRIPOS>BOND
     1     1     2 1   
     2     1    43 1   
     3     2     3 1   
     4     2    48 1   
     5     3     4 1   
     6     3    49 1   
     7     4     5 1   
     8     4     9 1   
     9     5     6 1   
    10     5    50 1   
    11     6     7 1   
    12     6    51 1   
    13     7     8 1   
    14     7    52 1   
    15     8     9 1   
    16     8    10 1   
    17    10    11 1   
    18    10    12 1   
    19    11    18 1   
    20    12    13 1   
    21    12    16 1   
    22    13    14 1   
    23    13    53 1   
    24    13    54 1   
    25    14    15 1   
    26    14    55 1   
    27    14    56 1   
    28    15    16 1   
    29    15    57 1   
    30    15    58 1   
    31    16    17 1   
    32    16    59 1   
    33    17    18 1   
    34    17    19 1   
    35    19    20 1   
    36    19    60 1   
    37    20    21 1   
    38    20    25 1   
    39    21    22 1   
    40    21    61 1   
    41    22    23 1   
    42    22    62 1   
    43    23    24 1   
    44    23    63 1   
    45    24    25 1   
    46    24    26 1   
    47    26    27 1   
    48    26    28 1   
    49    27    34 1   
    50    28    29 1   
    51    28    32 1   
    52    29    30 1   
    53    29    64 1   
    54    29    65 1   
    55    30    31 1   
    56    30    66 1   
    57    30    67 1   
    58    31    32 1   
    59    31    68 1   
    60    31    69 1   
    61    32    33 1   
    62    32    70 1   
    63    33    34 1   
    64    33    35 1   
    65    35    36 1   
    66    35    71 1   
    67    36    37 1   
    68    36    41 1   
    69    37    38 1   
    70    37    72 1   
    71    38    39 1   
    72    38    73 1   
    73    39    40 1   
    74    39    74 1   
    75    40    41 1   
    76    40    42 1   
    77    42    43 1   
    78    42    44 1   
    79    44    45 1   
    80    44    48 1   
    81    45    46 1   
    82    45    75 1   
    83    45    76 1   
    84    46    47 1   
    85    46    77 1   
    86    46    78 1   
    87    47    48 1   
    88    47    79 1   
    89    47    80 1   
    90    48    81 1   
@<TRIPOS>SUBSTRUCTURE
     1 137         1 TEMP              0 ****  ****    0 ROOT
