@<TRIPOS>MOLECULE
ASB
   92    96     1     0     0
SMALL
bcc


@<TRIPOS>ATOM
      1 C1           2.0940     6.4000     2.3920 c3         1 ASB      -0.070800
      2 C2           1.1610     5.7180     1.4200 ca         1 ASB      -0.031800
      3 C3          -0.1510     6.2010     1.3410 ca         1 ASB      -0.134000
      4 C4          -1.0810     5.6800     0.4340 ca         1 ASB      -0.031800
      5 C5          -2.4490     6.3130     0.3880 c3         1 ASB      -0.070800
      6 C6          -0.6910     4.6390    -0.4370 ca         1 ASB      -0.145300
      7 C7          -1.6720     4.1370    -1.4830 c3         1 ASB       0.128300
      8 N1          -2.4360     3.0120    -0.9700 n          1 ASB      -0.530150
      9 C8          -2.7370     1.9290    -1.7650 c2         1 ASB       0.661800
     10 O1          -2.3180     1.7790    -2.9060 o          1 ASB      -0.583300
     11 C9          -3.5580     0.8460    -1.1630 cc         1 ASB       0.080000
     12 C10         -4.7000     1.1680    -0.4210 cc         1 ASB      -0.113750
     13 C11         -5.4930     0.1550     0.1000 cd         1 ASB      -0.012500
     14 C12         -5.1450    -1.1650    -0.1430 cd         1 ASB      -0.113750
     15 C13         -4.0010    -1.4480    -0.8930 cc         1 ASB       0.060800
     16 C14         -3.6550    -2.8550    -1.2040 c          1 ASB       0.654800
     17 O2          -3.3950    -3.1360    -2.3660 o          1 ASB      -0.557100
     18 N2          -3.5690    -3.7180    -0.1370 n          1 ASB      -0.530150
     19 C15         -2.9550    -5.0320    -0.2670 c3         1 ASB       0.128300
     20 C16         -1.4840    -4.9600     0.1230 ca         1 ASB      -0.145300
     21 C17         -1.1330    -5.0660     1.4910 ca         1 ASB      -0.031800
     22 C18         -2.1460    -5.3610     2.5700 c3         1 ASB      -0.070800
     23 C19          0.2120    -4.9700     1.8730 ca         1 ASB      -0.134000
     24 C20          1.2320    -4.7230     0.9450 ca         1 ASB      -0.031800
     25 C21          2.6460    -4.6850     1.4660 c3         1 ASB      -0.070800
     26 C22          0.9020    -4.5300    -0.4150 ca         1 ASB      -0.145300
     27 C23          1.9790    -4.1700    -1.4320 c3         1 ASB       0.128300
     28 N3           2.8100    -3.0410    -1.0340 n          1 ASB      -0.530150
     29 C24          2.3230    -1.7580    -0.9590 c2         1 ASB       0.661800
     30 O3           1.1660    -1.4070    -1.1680 o          1 ASB      -0.583300
     31 C25          3.2880    -0.7190    -0.5370 cc         1 ASB       0.080000
     32 C26          4.3830    -0.4380    -1.3570 cc         1 ASB      -0.113750
     33 C27          5.2090     0.6340    -1.0520 cd         1 ASB      -0.012500
     34 C28          4.9060     1.4250     0.0470 cd         1 ASB      -0.113750
     35 C29          3.7930     1.1180     0.8320 cc         1 ASB       0.060800
     36 C30          3.4600     1.9540     2.0030 c          1 ASB       0.654800
     37 O4           3.3990     1.4050     3.0980 o          1 ASB      -0.557100
     38 N4           3.1640     3.2800     1.8690 n          1 ASB      -0.530150
     39 C31          2.9870     4.1170     0.6880 c3         1 ASB       0.128300
     40 C32          1.5620     4.6400     0.5940 ca         1 ASB      -0.145300
     41 C33          0.6180     4.0790    -0.3210 ca         1 ASB      -0.023300
     42 C34          1.0350     2.9500    -1.2360 c3         1 ASB      -0.078800
     43 N5           3.0210     0.0260     0.5680 na         1 ASB      -0.309200
     44 C35          1.9430    -0.3580     1.5140 c3         1 ASB       0.136600
     45 C36         -0.4510    -4.7360    -0.8380 ca         1 ASB      -0.023300
     46 C37         -0.7490    -4.7360    -2.3250 c3         1 ASB      -0.078800
     47 N6          -3.2020    -0.4530    -1.3710 na         1 ASB      -0.309200
     48 C38         -1.9400    -0.7900    -2.0800 c3         1 ASB       0.136600
     49 H1           1.6310     7.2880     2.8380 hc         1 ASB       0.057450
     50 H2           3.0000     6.7430     1.8850 hc         1 ASB       0.057450
     51 H3           2.3570     5.7270     3.2120 hc         1 ASB       0.057450
     52 H4          -0.4500     7.0300     1.9850 ha         1 ASB       0.156500
     53 H5          -2.6230     6.9590     1.2560 hc         1 ASB       0.057450
     54 H6          -3.2310     5.5480     0.4050 hc         1 ASB       0.057450
     55 H7          -2.5510     6.9260    -0.5130 hc         1 ASB       0.057450
     56 H8          -2.3920     4.9120    -1.7670 h1         1 ASB       0.086325
     57 H9          -1.1560     3.8810    -2.4140 h1         1 ASB       0.086325
     58 H10         -2.8200     3.1270    -0.0400 hn         1 ASB       0.334000
     59 H11         -5.0020     2.2050    -0.2800 ha         1 ASB       0.206750
     60 H12         -6.3980     0.3930     0.6610 ha         1 ASB       0.203000
     61 H13         -5.7860    -1.9680     0.2170 ha         1 ASB       0.206750
     62 H14         -3.7090    -3.3960     0.8120 hn         1 ASB       0.334000
     63 H15         -3.1190    -5.4270    -1.2710 h1         1 ASB       0.086325
     64 H16         -3.5010    -5.7110     0.3950 h1         1 ASB       0.086325
     65 H17         -2.5510    -6.3700     2.4420 hc         1 ASB       0.057450
     66 H18         -2.9580    -4.6300     2.5530 hc         1 ASB       0.057450
     67 H19         -1.6980    -5.3110     3.5690 hc         1 ASB       0.057450
     68 H20          0.4750    -5.1150     2.9220 ha         1 ASB       0.156500
     69 H21          2.7350    -5.2370     2.4080 hc         1 ASB       0.057450
     70 H22          2.9550    -3.6520     1.6490 hc         1 ASB       0.057450
     71 H23          3.3390    -5.1620     0.7660 hc         1 ASB       0.057450
     72 H24          1.5630    -3.8860    -2.4010 h1         1 ASB       0.086325
     73 H25          2.6330    -5.0340    -1.5910 h1         1 ASB       0.086325
     74 H26          3.7860    -3.2530    -0.8620 hn         1 ASB       0.334000
     75 H27          4.5770    -1.0310    -2.2500 ha         1 ASB       0.206750
     76 H28          6.0720     0.8660    -1.6780 ha         1 ASB       0.203000
     77 H29          5.5420     2.2740     0.2970 ha         1 ASB       0.206750
     78 H30          2.9520     3.7250     2.7580 hn         1 ASB       0.334000
     79 H31          3.2820     3.5830    -0.2150 h1         1 ASB       0.086325
     80 H32          3.6940     4.9490     0.7730 h1         1 ASB       0.086325
     81 H33          0.1920     2.3650    -1.6060 hc         1 ASB       0.054533
     82 H34          1.5910     3.3460    -2.0910 hc         1 ASB       0.054533
     83 H35          1.6520     2.2240    -0.7030 hc         1 ASB       0.054533
     84 H36          1.2670     0.4930     1.6310 h1         1 ASB       0.111533
     85 H37          2.4110    -0.6490     2.4580 h1         1 ASB       0.111533
     86 H38          1.3680    -1.2160     1.1730 h1         1 ASB       0.111533
     87 H39         -0.7500    -3.7140    -2.7130 hc         1 ASB       0.054533
     88 H40          0.0030    -5.3260    -2.8600 hc         1 ASB       0.054533
     89 H41         -1.6940    -5.2090    -2.5880 hc         1 ASB       0.054533
     90 H42         -1.5250    -1.7140    -1.6760 h1         1 ASB       0.111533
     91 H43         -1.1840    -0.0300    -1.8780 h1         1 ASB       0.111533
     92 H44         -2.1590    -0.8750    -3.1460 h1         1 ASB       0.111533
@<TRIPOS>BOND
     1     1     2 1   
     2     1    49 1   
     3     1    50 1   
     4     1    51 1   
     5     2     3 ar  
     6     2    40 ar  
     7     3     4 ar  
     8     3    52 1   
     9     4     5 1   
    10     4     6 ar  
    11     5    53 1   
    12     5    54 1   
    13     5    55 1   
    14     6     7 1   
    15     6    41 ar  
    16     7     8 1   
    17     7    56 1   
    18     7    57 1   
    19     8     9 1   
    20     8    58 1   
    21     9    10 1   
    22     9    11 2   
    23    11    12 1   
    24    11    47 1   
    25    12    13 2   
    26    12    59 1   
    27    13    14 1   
    28    13    60 1   
    29    14    15 2   
    30    14    61 1   
    31    15    16 1   
    32    15    47 1   
    33    16    17 2   
    34    16    18 1   
    35    18    19 1   
    36    18    62 1   
    37    19    20 1   
    38    19    63 1   
    39    19    64 1   
    40    20    21 ar  
    41    20    45 ar  
    42    21    22 1   
    43    21    23 ar  
    44    22    65 1   
    45    22    66 1   
    46    22    67 1   
    47    23    24 ar  
    48    23    68 1   
    49    24    25 1   
    50    24    26 ar  
    51    25    69 1   
    52    25    70 1   
    53    25    71 1   
    54    26    27 1   
    55    26    45 ar  
    56    27    28 1   
    57    27    72 1   
    58    27    73 1   
    59    28    29 1   
    60    28    74 1   
    61    29    30 1   
    62    29    31 2   
    63    31    32 1   
    64    31    43 1   
    65    32    33 2   
    66    32    75 1   
    67    33    34 1   
    68    33    76 1   
    69    34    35 2   
    70    34    77 1   
    71    35    36 1   
    72    35    43 1   
    73    36    37 2   
    74    36    38 1   
    75    38    39 1   
    76    38    78 1   
    77    39    40 1   
    78    39    79 1   
    79    39    80 1   
    80    40    41 ar  
    81    41    42 1   
    82    42    81 1   
    83    42    82 1   
    84    42    83 1   
    85    43    44 1   
    86    44    84 1   
    87    44    85 1   
    88    44    86 1   
    89    45    46 1   
    90    46    87 1   
    91    46    88 1   
    92    46    89 1   
    93    47    48 1   
    94    48    90 1   
    95    48    91 1   
    96    48    92 1   
@<TRIPOS>SUBSTRUCTURE
     1 ASB         1 TEMP              0 ****  ****    0 ROOT
