@<TRIPOS>MOLECULE
129
   89    93     1     0     0
SMALL
bcc


@<TRIPOS>ATOM
      1 O1          -2.7830    -3.0360    -4.1910 o          1 129      -0.603100
      2 C1          -1.8450    -2.6710    -3.4870 c          1 129       0.564433
      3 N1          -2.0070    -2.2550    -2.1810 n          1 129      -0.540233
      4 C2          -3.3420    -2.0390    -1.6520 c3         1 129       0.076833
      5 C3          -3.3340    -1.6740    -0.1570 c3         1 129       0.156967
      6 N2          -2.4920    -0.4990     0.1280 n3         1 129      -0.772600
      7 C4          -2.0290    -0.4630     1.5230 c3         1 129       0.156967
      8 C5          -3.0620    -0.5700     2.6620 c3         1 129       0.076833
      9 N3          -2.3700    -0.4880     3.9350 n          1 129      -0.540233
     10 C6          -2.1760     0.7220     4.5710 c          1 129       0.564433
     11 O2          -2.8580     1.7220     4.3880 o          1 129      -0.603100
     12 C7          -0.9910     0.7370     5.4820 ca         1 129       0.361300
     13 C8          -0.9020     1.6710     6.5040 ca         1 129      -0.176800
     14 C9           0.2390     1.6600     7.2990 ca         1 129      -0.106333
     15 C10          1.2540     0.7460     7.0220 ca         1 129      -0.176800
     16 C11          1.0940    -0.1270     5.9500 ca         1 129       0.361300
     17 N4          -0.0250    -0.1770     5.1860 nb         1 129      -0.645667
     18 C12          2.2080    -1.0640     5.6140 c          1 129       0.564433
     19 O3           2.9170    -1.5150     6.5120 o          1 129      -0.603100
     20 N5           2.4800    -1.4090     4.3080 n          1 129      -0.540233
     21 C13          1.8500    -0.9330     3.0810 c3         1 129       0.076833
     22 C14          2.8270    -0.9890     1.8850 c3         1 129       0.156967
     23 N6           2.3380    -0.5410     0.5670 n3         1 129      -0.772600
     24 C15          1.3150    -1.4470    -0.0150 c3         1 129       0.156967
     25 C16          1.8740    -2.7840    -0.5310 c3         1 129       0.076833
     26 N7           2.9910    -2.5960    -1.4360 n          1 129      -0.540233
     27 C17          3.0350    -2.3930    -2.7930 c          1 129       0.564433
     28 O4           4.1430    -2.1550    -3.2800 o          1 129      -0.603100
     29 C18          1.8280    -2.4730    -3.6860 ca         1 129       0.361300
     30 C19          2.0690    -2.5380    -5.0610 ca         1 129      -0.176800
     31 C20          0.9960    -2.6590    -5.9350 ca         1 129      -0.106333
     32 C21         -0.2880    -2.7100    -5.4140 ca         1 129      -0.176800
     33 C22         -0.4490    -2.6180    -4.0340 ca         1 129       0.361300
     34 N8           0.5790    -2.4930    -3.1450 nb         1 129      -0.645667
     35 C23          1.8550     0.8580     0.5900 c3         1 129       0.156967
     36 C24          2.2660     1.6810    -0.6510 c3         1 129       0.076833
     37 N9           2.1270     0.9640    -1.9070 n          1 129      -0.540233
     38 C25          1.8400     1.4930    -3.1420 c          1 129       0.564433
     39 O5           2.2400     0.9270    -4.1590 o          1 129      -0.603100
     40 C26          1.0240     2.7350    -3.2660 ca         1 129       0.361300
     41 C27          1.3070     3.6150    -4.3050 ca         1 129      -0.176800
     42 C28          0.4920     4.7290    -4.4660 ca         1 129      -0.106333
     43 C29         -0.5930     4.9020    -3.6120 ca         1 129      -0.176800
     44 C30         -0.8260     3.9540    -2.6170 ca         1 129       0.361300
     45 N10         -0.0180     2.8860    -2.4080 nb         1 129      -0.645667
     46 C31         -2.0370     4.1260    -1.7470 c          1 129       0.564433
     47 O6          -2.5810     5.2290    -1.6740 o          1 129      -0.603100
     48 N11         -2.5920     3.0820    -1.0390 n          1 129      -0.540233
     49 C32         -2.0680     1.7390    -0.8490 c3         1 129       0.076833
     50 C33         -3.1200     0.7740    -0.2710 c3         1 129       0.156967
     51 H1          -1.2370    -1.7370    -1.7690 hn         1 129       0.324167
     52 H2          -3.9220    -2.9560    -1.8030 h1         1 129       0.058783
     53 H3          -3.8160    -1.2550    -2.2530 h1         1 129       0.058783
     54 H4          -4.3600    -1.5250     0.2010 h1         1 129       0.053450
     55 H5          -2.9290    -2.5450     0.3760 h1         1 129       0.053450
     56 H6          -1.4150     0.4330     1.6770 h1         1 129       0.053450
     57 H7          -1.3310    -1.2970     1.6550 h1         1 129       0.053450
     58 H8          -3.8120     0.2250     2.5990 h1         1 129       0.058783
     59 H9          -3.5720    -1.5380     2.6390 h1         1 129       0.058783
     60 H10         -1.6670    -1.1950     4.1390 hn         1 129       0.324167
     61 H11         -1.7030     2.3830     6.6780 ha         1 129       0.169667
     62 H12          0.3440     2.3650     8.1200 ha         1 129       0.151667
     63 H13          2.1620     0.7280     7.6200 ha         1 129       0.169667
     64 H14          3.2040    -2.1150     4.2350 hn         1 129       0.324167
     65 H15          1.5070     0.0940     3.2330 h1         1 129       0.058783
     66 H16          0.9790    -1.5720     2.9090 h1         1 129       0.058783
     67 H17          3.2260    -2.0070     1.7970 h1         1 129       0.053450
     68 H18          3.7070    -0.3810     2.1360 h1         1 129       0.053450
     69 H19          0.5270    -1.6570     0.7090 h1         1 129       0.053450
     70 H20          0.8230    -0.9540    -0.8610 h1         1 129       0.053450
     71 H21          2.2500    -3.3840     0.3040 h1         1 129       0.058783
     72 H22          1.0910    -3.3770    -1.0070 h1         1 129       0.058783
     73 H23          3.8820    -2.3920    -0.9990 hn         1 129       0.324167
     74 H24          3.0840    -2.4960    -5.4480 ha         1 129       0.169667
     75 H25          1.1620    -2.7110    -7.0070 ha         1 129       0.151667
     76 H26         -1.1470    -2.8090    -6.0710 ha         1 129       0.169667
     77 H27          0.7660     0.8830     0.7090 h1         1 129       0.053450
     78 H28          2.2630     1.3970     1.4550 h1         1 129       0.053450
     79 H29          1.7250     2.6290    -0.6650 h1         1 129       0.058783
     80 H30          3.3320     1.9320    -0.5740 h1         1 129       0.058783
     81 H31          2.7070     0.1350    -1.9700 hn         1 129       0.324167
     82 H32          2.1390     3.4290    -4.9780 ha         1 129       0.169667
     83 H33          0.6840     5.4430    -5.2630 ha         1 129       0.151667
     84 H34         -1.2590     5.7530    -3.7340 ha         1 129       0.169667
     85 H35         -3.3250     3.3980    -0.4150 hn         1 129       0.324167
     86 H36         -1.2070     1.8340    -0.1820 h1         1 129       0.058783
     87 H37         -1.7290     1.3420    -1.8100 h1         1 129       0.058783
     88 H38         -3.6530     1.2400     0.5670 h1         1 129       0.053450
     89 H39         -3.8800     0.6230    -1.0460 h1         1 129       0.053450
@<TRIPOS>BOND
     1     1     2 2   
     2     2     3 1   
     3     2    33 1   
     4     3     4 1   
     5     3    51 1   
     6     4     5 1   
     7     4    52 1   
     8     4    53 1   
     9     5     6 1   
    10     5    54 1   
    11     5    55 1   
    12     6     7 1   
    13     6    50 1   
    14     7     8 1   
    15     7    56 1   
    16     7    57 1   
    17     8     9 1   
    18     8    58 1   
    19     8    59 1   
    20     9    10 1   
    21     9    60 1   
    22    10    11 2   
    23    10    12 1   
    24    12    13 ar  
    25    12    17 ar  
    26    13    14 ar  
    27    13    61 1   
    28    14    15 ar  
    29    14    62 1   
    30    15    16 ar  
    31    15    63 1   
    32    16    17 ar  
    33    16    18 1   
    34    18    19 2   
    35    18    20 1   
    36    20    21 1   
    37    20    64 1   
    38    21    22 1   
    39    21    65 1   
    40    21    66 1   
    41    22    23 1   
    42    22    67 1   
    43    22    68 1   
    44    23    24 1   
    45    23    35 1   
    46    24    25 1   
    47    24    69 1   
    48    24    70 1   
    49    25    26 1   
    50    25    71 1   
    51    25    72 1   
    52    26    27 1   
    53    26    73 1   
    54    27    28 2   
    55    27    29 1   
    56    29    30 ar  
    57    29    34 ar  
    58    30    31 ar  
    59    30    74 1   
    60    31    32 ar  
    61    31    75 1   
    62    32    33 ar  
    63    32    76 1   
    64    33    34 ar  
    65    35    36 1   
    66    35    77 1   
    67    35    78 1   
    68    36    37 1   
    69    36    79 1   
    70    36    80 1   
    71    37    38 1   
    72    37    81 1   
    73    38    39 2   
    74    38    40 1   
    75    40    41 ar  
    76    40    45 ar  
    77    41    42 ar  
    78    41    82 1   
    79    42    43 ar  
    80    42    83 1   
    81    43    44 ar  
    82    43    84 1   
    83    44    45 ar  
    84    44    46 1   
    85    46    47 2   
    86    46    48 1   
    87    48    49 1   
    88    48    85 1   
    89    49    50 1   
    90    49    86 1   
    91    49    87 1   
    92    50    88 1   
    93    50    89 1   
@<TRIPOS>SUBSTRUCTURE
     1 129         1 TEMP              0 ****  ****    0 ROOT
