@<TRIPOS>MOLECULE
175
  120   128     1     0     0
SMALL
bcc


@<TRIPOS>ATOM
      1 O           -0.4200     6.2540     2.4270 oh         0 175      -0.510288
      2 C            0.1470     6.3510     1.1940 ca         0 175       0.099600
      3 C1           1.5190     6.1950     1.0460 ca         0 175      -0.150813
      4 C2           2.0930     6.2930    -0.2060 ca         0 175      -0.089862
      5 C3           1.2740     6.3770    -1.3330 ca         0 175       0.099600
      6 O1           1.8200     6.3050    -2.5760 oh         0 175      -0.510288
      7 C4          -0.0930     6.5330    -1.1850 ca         0 175      -0.150813
      8 C5          -0.6450     6.6000     0.0830 ca         0 175      -0.089862
      9 C6          -2.0460     7.1090     0.2230 c3         0 175       0.012950
     10 C7          -3.1070     6.0630     0.1060 ca         0 175      -0.089862
     11 C8          -3.5400     5.5780    -1.1180 ca         0 175       0.099600
     12 O2          -2.8950     5.9360    -2.2600 oh         0 175      -0.510288
     13 C9          -4.6350     4.7250    -1.1730 ca         0 175      -0.150813
     14 C10         -5.2790     4.3470    -0.0110 ca         0 175      -0.089862
     15 C11         -6.5870     3.6290    -0.0370 c3         0 175       0.012950
     16 C12         -6.5360     2.1420     0.0460 ca         0 175      -0.089862
     17 C13         -6.4680     1.4760     1.2630 ca         0 175       0.099600
     18 O3          -6.2760     2.1760     2.4130 oh         0 175      -0.510288
     19 C14         -6.5970     0.0960     1.3020 ca         0 175      -0.150813
     20 C15         -6.7710    -0.6190     0.1310 ca         0 175      -0.089862
     21 C16         -7.1460    -2.0650     0.1640 c3         0 175       0.012950
     22 C17         -6.0610    -3.0670    -0.0330 ca         0 175      -0.089862
     23 C18         -5.5220    -3.6950     1.0890 ca         0 175       0.099600
     24 O4          -5.8420    -3.2540     2.3350 oh         0 175      -0.510288
     25 C19         -4.6620    -4.7670     0.9360 ca         0 175      -0.150813
     26 C20         -4.3180    -5.2020    -0.3300 ca         0 175      -0.089862
     27 C21         -3.5870    -6.4950    -0.5070 c3         0 175       0.012950
     28 C22         -2.1120    -6.4470    -0.2790 ca         0 175      -0.089862
     29 C23         -1.2650    -6.4370    -1.3870 ca         0 175       0.099600
     30 O5          -1.7810    -6.2820    -2.6360 oh         0 175      -0.510288
     31 C24          0.1000    -6.5830    -1.2160 ca         0 175      -0.150813
     32 C25          0.6270    -6.7150     0.0540 ca         0 175      -0.089862
     33 C26          2.0550    -7.1220     0.2440 c3         0 175       0.012950
     34 C27          3.0770    -6.0420     0.1120 ca         0 175      -0.089862
     35 C28          3.6450    -5.5050     1.2660 ca         0 175       0.099600
     36 O6           3.1400    -5.8290     2.4860 oh         0 175      -0.510288
     37 C29          4.7240    -4.6430     1.1690 ca         0 175      -0.150813
     38 C30          5.2210    -4.2930    -0.0720 ca         0 175      -0.089862
     39 C31          6.5220    -3.5710    -0.2000 c3         0 175       0.012950
     40 C32          6.5080    -2.0930    -0.0010 ca         0 175      -0.089862
     41 C33          6.4670    -1.5380     1.2720 ca         0 175       0.099600
     42 O7           6.2760    -2.3370     2.3560 oh         0 175      -0.510288
     43 C34          6.6200    -0.1730     1.4350 ca         0 175      -0.150813
     44 C35          6.7900     0.6450     0.3310 ca         0 175      -0.089862
     45 C36          7.1570     2.0810     0.5250 c3         0 175       0.012950
     46 C37          6.0990     3.0930     0.2470 ca         0 175      -0.089862
     47 C38          5.4500     3.7000     1.3210 ca         0 175       0.099600
     48 O8           5.6670     3.2500     2.5860 oh         0 175      -0.510288
     49 C39          4.5860     4.7580     1.1040 ca         0 175      -0.150813
     50 C40          4.3500     5.2010    -0.1830 ca         0 175      -0.089862
     51 C41          3.5660     6.4530    -0.4010 c3         0 175       0.012950
     52 C42          4.8800     4.5050    -1.2600 ca         0 175       0.099600
     53 O9           4.5430     4.8580    -2.5300 oh         0 175      -0.510288
     54 C43          5.7550     3.4500    -1.0420 ca         0 175      -0.150813
     55 C44          6.6740     0.1120    -0.9450 ca         0 175       0.099600
     56 O10          6.6940     0.9310    -2.0310 oh         0 175      -0.510288
     57 C45          6.5380    -1.2560    -1.1080 ca         0 175      -0.150813
     58 C46          4.5280    -4.6720    -1.2190 ca         0 175       0.099600
     59 O11          4.9000    -4.1830    -2.4320 oh         0 175      -0.510288
     60 C47          3.4590    -5.5510    -1.1220 ca         0 175      -0.150813
     61 C48         -0.1950    -6.5220     1.1610 ca         0 175       0.099600
     62 O12          0.3440    -6.4600     2.4070 oh         0 175      -0.510288
     63 C49         -1.5660    -6.3920     0.9890 ca         0 175      -0.150813
     64 C50         -4.7010    -4.4550    -1.4390 ca         0 175       0.099600
     65 O13         -4.2200    -4.7700    -2.6710 oh         0 175      -0.510288
     66 C51         -5.5750    -3.3870    -1.2860 ca         0 175      -0.150813
     67 C52         -6.6660     0.0330    -1.0940 ca         0 175       0.099600
     68 O14         -6.6710    -0.6830    -2.2500 oh         0 175      -0.510288
     69 C53         -6.5560     1.4100    -1.1330 ca         0 175      -0.150813
     70 C54         -4.7380     4.7040     1.2230 ca         0 175       0.099600
     71 O15         -5.2690     4.2030     2.3700 oh         0 175      -0.510288
     72 C55         -3.6610     5.5670     1.2770 ca         0 175      -0.150813
     73 H           -0.4190     7.1430     2.8050 ho         0 175       0.429500
     74 H1           2.1370     5.9980     1.9100 ha         0 175       0.146187
     75 H2           1.8270     5.3710    -2.8240 ho         0 175       0.429500
     76 H3          -0.7270     6.5980    -2.0570 ha         0 175       0.146187
     77 H4          -2.1420     7.5890     1.1970 hc         0 175       0.069138
     78 H5          -2.2180     7.8610    -0.5460 hc         0 175       0.069138
     79 H6          -2.1990     5.2800    -2.4050 ho         0 175       0.429500
     80 H7          -4.9830     4.3570    -2.1270 ha         0 175       0.146187
     81 H8          -7.1870     3.9920     0.7980 hc         0 175       0.069138
     82 H9          -7.1010     3.8980    -0.9590 hc         0 175       0.069138
     83 H10         -7.1530     2.4080     2.7480 ho         0 175       0.429500
     84 H11         -6.5600    -0.4220     2.2490 ha         0 175       0.146187
     85 H12         -7.6140    -2.2650     1.1270 hc         0 175       0.069138
     86 H13         -7.8970    -2.2320    -0.6080 hc         0 175       0.069138
     87 H14         -6.6280    -3.7440     2.6120 ho         0 175       0.429500
     88 H15         -4.2590    -5.2640     1.8060 ha         0 175       0.146187
     89 H16         -4.0140    -7.2240     0.1830 hc         0 175       0.069138
     90 H17         -3.7640    -6.8500    -1.5220 hc         0 175       0.069138
     91 H18         -1.7980    -5.3320    -2.8160 ho         0 175       0.429500
     92 H19          0.7540    -6.5950    -2.0760 ha         0 175       0.146187
     93 H20          2.1530    -7.5600     1.2380 hc         0 175       0.069138
     94 H21          2.2860    -7.8970    -0.4870 hc         0 175       0.069138
     95 H22          3.6170    -6.6150     2.7860 ho         0 175       0.429500
     96 H23          5.1770    -4.2430     2.0640 ha         0 175       0.146187
     97 H24          7.2150    -3.9990     0.5250 hc         0 175       0.069138
     98 H25          6.9200    -3.7710    -1.1950 hc         0 175       0.069138
     99 H26          7.1520    -2.6130     2.6580 ho         0 175       0.429500
    100 H27          6.6080     0.2560     2.4260 ha         0 175       0.146187
    101 H28          7.4810     2.2090     1.5580 hc         0 175       0.069138
    102 H29          8.0080     2.3000    -0.1200 hc         0 175       0.069138
    103 H30          6.4160     3.7510     2.9360 ho         0 175       0.429500
    104 H31          4.0970     5.2360     1.9390 ha         0 175       0.146187
    105 H32          3.7460     6.8020    -1.4170 hc         0 175       0.069138
    106 H33          3.9280     7.2130     0.2920 hc         0 175       0.069138
    107 H34          5.1890     5.5170    -2.8180 ho         0 175       0.429500
    108 H35          6.1660     2.9070    -1.8800 ha         0 175       0.146187
    109 H36          7.6190     1.0130    -2.3020 ho         0 175       0.429500
    110 H37          6.4550    -1.6740    -2.1000 ha         0 175       0.146187
    111 H38          5.5530    -4.7970    -2.7930 ho         0 175       0.429500
    112 H39          2.9240    -5.8510    -2.0120 ha         0 175       0.146187
    113 H40          0.5530    -5.5310     2.5760 ho         0 175       0.429500
    114 H41         -2.2060    -6.2470     1.8470 ha         0 175       0.146187
    115 H42         -4.8380    -5.4030    -3.0600 ho         0 175       0.429500
    116 H43         -5.8760    -2.8080    -2.1460 ha         0 175       0.146187
    117 H44         -7.5940    -0.7580    -2.5290 ho         0 175       0.429500
    118 H45         -6.4860     1.9180    -2.0830 ha         0 175       0.146187
    119 H46         -4.7980     3.3800     2.5600 ho         0 175       0.429500
    120 H47         -3.2490     5.8550     2.2330 ha         0 175       0.146187
@<TRIPOS>BOND
     1     1     2 1   
     2     1    73 1   
     3     2     3 ar  
     4     2     8 ar  
     5     3     4 ar  
     6     3    74 1   
     7     4     5 ar  
     8     4    51 1   
     9     5     6 1   
    10     5     7 ar  
    11     6    75 1   
    12     7     8 ar  
    13     7    76 1   
    14     8     9 1   
    15     9    10 1   
    16     9    77 1   
    17     9    78 1   
    18    10    11 ar  
    19    10    72 ar  
    20    11    12 1   
    21    11    13 ar  
    22    12    79 1   
    23    13    14 ar  
    24    13    80 1   
    25    14    15 1   
    26    14    70 ar  
    27    15    16 1   
    28    15    81 1   
    29    15    82 1   
    30    16    17 ar  
    31    16    69 ar  
    32    17    18 1   
    33    17    19 ar  
    34    18    83 1   
    35    19    20 ar  
    36    19    84 1   
    37    20    21 1   
    38    20    67 ar  
    39    21    22 1   
    40    21    85 1   
    41    21    86 1   
    42    22    23 ar  
    43    22    66 ar  
    44    23    24 1   
    45    23    25 ar  
    46    24    87 1   
    47    25    26 ar  
    48    25    88 1   
    49    26    27 1   
    50    26    64 ar  
    51    27    28 1   
    52    27    89 1   
    53    27    90 1   
    54    28    29 ar  
    55    28    63 ar  
    56    29    30 1   
    57    29    31 ar  
    58    30    91 1   
    59    31    32 ar  
    60    31    92 1   
    61    32    33 1   
    62    32    61 ar  
    63    33    34 1   
    64    33    93 1   
    65    33    94 1   
    66    34    35 ar  
    67    34    60 ar  
    68    35    36 1   
    69    35    37 ar  
    70    36    95 1   
    71    37    38 ar  
    72    37    96 1   
    73    38    39 1   
    74    38    58 ar  
    75    39    40 1   
    76    39    97 1   
    77    39    98 1   
    78    40    41 ar  
    79    40    57 ar  
    80    41    42 1   
    81    41    43 ar  
    82    42    99 1   
    83    43    44 ar  
    84    43   100 1   
    85    44    45 1   
    86    44    55 ar  
    87    45    46 1   
    88    45   101 1   
    89    45   102 1   
    90    46    47 ar  
    91    46    54 ar  
    92    47    48 1   
    93    47    49 ar  
    94    48   103 1   
    95    49    50 ar  
    96    49   104 1   
    97    50    51 1   
    98    50    52 ar  
    99    51   105 1   
   100    51   106 1   
   101    52    53 1   
   102    52    54 ar  
   103    53   107 1   
   104    54   108 1   
   105    55    56 1   
   106    55    57 ar  
   107    56   109 1   
   108    57   110 1   
   109    58    59 1   
   110    58    60 ar  
   111    59   111 1   
   112    60   112 1   
   113    61    62 1   
   114    61    63 ar  
   115    62   113 1   
   116    63   114 1   
   117    64    65 1   
   118    64    66 ar  
   119    65   115 1   
   120    66   116 1   
   121    67    68 1   
   122    67    69 ar  
   123    68   117 1   
   124    69   118 1   
   125    70    71 1   
   126    70    72 ar  
   127    71   119 1   
   128    72   120 1   
@<TRIPOS>SUBSTRUCTURE
     1 175         1 TEMP              0 ****  ****    0 ROOT
