@<TRIPOS>MOLECULE
183
  144   152     1     0     0
SMALL
bcc


@<TRIPOS>ATOM
      1 C            9.2570     5.5280    -0.1530 c3         0 183      -0.088100
      2 C1           9.9050     4.1440    -0.2370 c3         0 183      -0.006700
      3 C2          10.5560     3.9680    -1.6100 c3         0 183      -0.088100
      4 C3          10.9710     4.0130     0.8530 c3         0 183      -0.088100
      5 C4           8.8530     3.0840    -0.0400 ca         0 183      -0.070800
      6 C5           7.5340     3.4610     0.1750 ca         0 183      -0.087000
      7 C6           6.5650     2.4990     0.3570 ca         0 183       0.027600
      8 C7           6.9190     1.1380     0.3140 ca         0 183      -0.067200
      9 N            6.1550    -0.0060     0.4490 na         0 183      -0.148300
     10 C8           6.9530    -1.1270     0.2970 ca         0 183      -0.067200
     11 C9           6.6310    -2.4960     0.2900 ca         0 183       0.027600
     12 N1           5.2800    -2.8200     0.4380 n          0 183      -0.425850
     13 C10          4.8000    -4.0660     0.2710 c          0 183       0.565900
     14 S            5.8330    -5.4020    -0.0140 s          0 183      -0.564400
     15 N2           3.4400    -4.2050     0.3410 n          0 183      -0.511900
     16 C11          2.8880    -5.5480     0.1060 c3         0 183       0.111300
     17 C12          1.3840    -5.4870     0.0320 ca         0 183      -0.119800
     18 C13          0.7570    -5.4860    -1.2010 ca         0 183      -0.119500
     19 C14         -0.6230    -5.4880    -1.2750 ca         0 183      -0.119500
     20 C15         -1.3780    -5.4820    -0.1160 ca         0 183      -0.119800
     21 C16         -2.8800    -5.5540    -0.1990 c3         0 183       0.111300
     22 N3          -3.4240    -4.2360    -0.5720 n          0 183      -0.511900
     23 C17         -4.7740    -4.0630    -0.3960 c          0 183       0.565900
     24 S1          -5.8080    -5.3200     0.1340 s          0 183      -0.564400
     25 N4          -5.2250    -2.8050    -0.6770 n          0 183      -0.425850
     26 C18         -6.5740    -2.5020    -0.3950 ca         0 183       0.027600
     27 C19         -6.9200    -1.1410    -0.3720 ca         0 183      -0.067200
     28 N5          -6.1650    -0.0010    -0.5790 na         0 183      -0.148300
     29 C20         -6.9460     1.1240    -0.3900 ca         0 183      -0.067200
     30 C21         -6.6240     2.4940    -0.4100 ca         0 183       0.027600
     31 N6          -5.2790     2.8220    -0.6490 n          0 183      -0.425850
     32 C22         -4.8050     4.0650    -0.4090 c          0 183       0.565900
     33 S2          -5.8310     5.3560     0.0520 s          0 183      -0.564400
     34 N7          -3.4510     4.2260    -0.5580 n          0 183      -0.511900
     35 C23         -2.9120     5.5500    -0.1980 c3         0 183       0.111300
     36 C24         -1.4110     5.4840    -0.0810 ca         0 183      -0.119800
     37 C25         -0.6260     5.4360    -1.2170 ca         0 183      -0.119500
     38 C26          0.7520     5.4330    -1.1050 ca         0 183      -0.119500
     39 C27          1.3420     5.4720     0.1440 ca         0 183      -0.119800
     40 C28          2.8410     5.5410     0.2740 c3         0 183       0.111300
     41 N8           3.3900     4.1990     0.5110 n          0 183      -0.511900
     42 C29          4.7450     4.0510     0.3680 c          0 183       0.565900
     43 S3           5.7790     5.3540    -0.0370 s          0 183      -0.564400
     44 N9           5.2050     2.7830     0.5760 n          0 183      -0.425850
     45 C30          0.5560     5.4620     1.2800 ca         0 183      -0.119500
     46 C31         -0.8210     5.4690     1.1690 ca         0 183      -0.119500
     47 C32         -7.6090     3.4320    -0.2050 ca         0 183      -0.087000
     48 C33         -8.9150     3.0230     0.0340 ca         0 183      -0.070800
     49 C34         -9.2410     1.6840     0.0800 ca         0 183      -0.082500
     50 C35         -8.2580     0.7170    -0.1200 cp         0 183      -0.055500
     51 C36         -8.2380    -0.7580    -0.0930 cp         0 183      -0.055500
     52 C37         -9.1970    -1.7440     0.1390 ca         0 183      -0.082500
     53 C38         -8.8420    -3.0760     0.1070 ca         0 183      -0.070800
     54 C39         -7.5320    -3.4600    -0.1570 ca         0 183      -0.087000
     55 C40         -9.8880    -4.1300     0.3620 c3         0 183      -0.006700
     56 C41        -10.9980    -4.0110    -0.6850 c3         0 183      -0.088100
     57 C42         -9.2480    -5.5170     0.2710 c3         0 183      -0.088100
     58 C43        -10.4810    -3.9330     1.7580 c3         0 183      -0.088100
     59 C44         -9.9900     4.0570     0.2470 c3         0 183      -0.006700
     60 C45         -9.3790     5.4570     0.1480 c3         0 183      -0.088100
     61 C46        -11.0720     3.8960    -0.8240 c3         0 183      -0.088100
     62 C47        -10.6120     3.8690     1.6320 c3         0 183      -0.088100
     63 C48         -0.7510    -5.4260     1.1150 ca         0 183      -0.119500
     64 C49          0.6300    -5.4290     1.1890 ca         0 183      -0.119500
     65 C50          7.6310    -3.4290     0.1360 ca         0 183      -0.087000
     66 C51          8.9470    -3.0180    -0.0290 ca         0 183      -0.070800
     67 C52          9.2700    -1.6760    -0.0480 ca         0 183      -0.082500
     68 C53          8.2760    -0.7130     0.1060 cp         0 183      -0.055500
     69 C54          8.2510     0.7620     0.0980 cp         0 183      -0.055500
     70 C55          9.2140     1.7530    -0.0820 ca         0 183      -0.082500
     71 C56         10.0350    -4.0480    -0.1880 c3         0 183      -0.006700
     72 C57          9.4230    -5.4490    -0.1310 c3         0 183      -0.088100
     73 C58         10.7320    -3.8500    -1.5360 c3         0 183      -0.088100
     74 C59         11.0550    -3.8910     0.9410 c3         0 183      -0.088100
     75 H            8.4980     5.6210    -0.9290 hc         0 183       0.038700
     76 H1           8.7930     5.6530     0.8260 hc         0 183       0.038700
     77 H2          10.0180     6.2950    -0.2950 hc         0 183       0.038700
     78 H3          11.3180     4.7360    -1.7520 hc         0 183       0.038700
     79 H4          11.0180     2.9830    -1.6700 hc         0 183       0.038700
     80 H5           9.7970     4.0620    -2.3870 hc         0 183       0.038700
     81 H6          10.5070     4.1390     1.8320 hc         0 183       0.038700
     82 H7          11.4330     3.0280     0.7940 hc         0 183       0.038700
     83 H8          11.7320     4.7810     0.7110 hc         0 183       0.038700
     84 H9           7.2680     4.5080     0.2000 ha         0 183       0.171750
     85 H10          5.2010    -0.0210     0.6240 hn         0 183       0.251700
     86 H11          4.6590    -2.1140     0.6730 hn         0 183       0.304000
     87 H12          2.8640    -3.4500     0.5370 hn         0 183       0.296000
     88 H13          3.2800    -5.9400    -0.8320 h1         0 183       0.091450
     89 H14          3.1830    -6.2070     0.9220 h1         0 183       0.091450
     90 H15          1.3460    -5.4850    -2.1070 ha         0 183       0.146250
     91 H16         -1.1120    -5.4930    -2.2380 ha         0 183       0.146250
     92 H17         -3.1670    -6.2900    -0.9500 h1         0 183       0.091450
     93 H18         -3.2820    -5.8510     0.7700 h1         0 183       0.091450
     94 H19         -2.8580    -3.5300    -0.9220 hn         0 183       0.296000
     95 H20         -4.6350    -2.1380    -1.0610 hn         0 183       0.304000
     96 H21         -5.2260     0.0080    -0.8200 hn         0 183       0.251700
     97 H22         -4.6780     2.1430    -0.9930 hn         0 183       0.304000
     98 H23         -2.8810     3.5110    -0.8820 hn         0 183       0.296000
     99 H24         -3.1840     6.2720    -0.9680 h1         0 183       0.091450
    100 H25         -3.3350     5.8650     0.7560 h1         0 183       0.091450
    101 H26         -1.0880     5.4000    -2.1930 ha         0 183       0.146250
    102 H27          1.3670     5.4000    -1.9930 ha         0 183       0.146250
    103 H28          3.2660     5.9480    -0.6430 h1         0 183       0.091450
    104 H29          3.1020     6.1900     1.1100 h1         0 183       0.091450
    105 H30          2.8210     3.4540     0.7570 hn         0 183       0.296000
    106 H31          4.6010     2.0840     0.8710 hn         0 183       0.304000
    107 H32          1.0180     5.4480     2.2560 ha         0 183       0.146250
    108 H33         -1.4350     5.4620     2.0570 ha         0 183       0.146250
    109 H34         -7.3680     4.4850    -0.2310 ha         0 183       0.171750
    110 H35        -10.2610     1.3830     0.2720 ha         0 183       0.142500
    111 H36        -10.2190    -1.4640     0.3460 ha         0 183       0.142500
    112 H37         -7.2680    -4.5070    -0.1760 ha         0 183       0.171750
    113 H38        -10.5750    -4.1520    -1.6800 hc         0 183       0.038700
    114 H39        -11.7540    -4.7740    -0.5000 hc         0 183       0.038700
    115 H40        -11.4540    -3.0230    -0.6200 hc         0 183       0.038700
    116 H41         -8.4570    -5.6020     1.0170 hc         0 183       0.038700
    117 H42        -10.0040    -6.2790     0.4550 hc         0 183       0.038700
    118 H43         -8.8250    -5.6570    -0.7240 hc         0 183       0.038700
    119 H44        -10.9370    -2.9450     1.8230 hc         0 183       0.038700
    120 H45        -11.2380    -4.6950     1.9430 hc         0 183       0.038700
    121 H46         -9.6910    -4.0180     2.5040 hc         0 183       0.038700
    122 H47         -8.9360     5.5910    -0.8390 hc         0 183       0.038700
    123 H48        -10.1570     6.2050     0.3020 hc         0 183       0.038700
    124 H49         -8.6090     5.5710     0.9110 hc         0 183       0.038700
    125 H50        -11.5070     2.9000    -0.7530 hc         0 183       0.038700
    126 H51        -11.8490     4.6440    -0.6700 hc         0 183       0.038700
    127 H52        -10.6280     4.0300    -1.8110 hc         0 183       0.038700
    128 H53         -9.8420     3.9840     2.3950 hc         0 183       0.038700
    129 H54        -11.3900     4.6170     1.7860 hc         0 183       0.038700
    130 H55        -11.0480     2.8730     1.7020 hc         0 183       0.038700
    131 H56         -1.3400    -5.3800     2.0200 ha         0 183       0.146250
    132 H57          1.1200    -5.3860     2.1510 ha         0 183       0.146250
    133 H58          7.3920    -4.4830     0.1450 ha         0 183       0.171750
    134 H59         10.2980    -1.3720    -0.1830 ha         0 183       0.142500
    135 H60         10.2450     1.4800    -0.2520 ha         0 183       0.142500
    136 H61          8.6960    -5.5610    -0.9360 hc         0 183       0.038700
    137 H62         10.2100    -6.1950    -0.2470 hc         0 183       0.038700
    138 H63          8.9270    -5.5900     0.8290 hc         0 183       0.038700
    139 H64         11.1680    -2.8520    -1.5760 hc         0 183       0.038700
    140 H65         11.5190    -4.5950    -1.6510 hc         0 183       0.038700
    141 H66         10.0050    -3.9620    -2.3410 hc         0 183       0.038700
    142 H67         10.5590    -4.0320     1.9010 hc         0 183       0.038700
    143 H68         11.8420    -4.6370     0.8260 hc         0 183       0.038700
    144 H69         11.4920    -2.8930     0.9010 hc         0 183       0.038700
@<TRIPOS>BOND
     1     1     2 1   
     2     1    75 1   
     3     1    76 1   
     4     1    77 1   
     5     2     3 1   
     6     2     4 1   
     7     2     5 1   
     8     3    78 1   
     9     3    79 1   
    10     3    80 1   
    11     4    81 1   
    12     4    82 1   
    13     4    83 1   
    14     5     6 ar  
    15     5    70 ar  
    16     6     7 ar  
    17     6    84 1   
    18     7     8 ar  
    19     7    44 1   
    20     8     9 1   
    21     8    69 ar  
    22     9    10 1   
    23     9    85 1   
    24    10    11 ar  
    25    10    68 ar  
    26    11    12 1   
    27    11    65 ar  
    28    12    13 1   
    29    12    86 1   
    30    13    14 2   
    31    13    15 1   
    32    15    16 1   
    33    15    87 1   
    34    16    17 1   
    35    16    88 1   
    36    16    89 1   
    37    17    18 ar  
    38    17    64 ar  
    39    18    19 ar  
    40    18    90 1   
    41    19    20 ar  
    42    19    91 1   
    43    20    21 1   
    44    20    63 ar  
    45    21    22 1   
    46    21    92 1   
    47    21    93 1   
    48    22    23 1   
    49    22    94 1   
    50    23    24 2   
    51    23    25 1   
    52    25    26 1   
    53    25    95 1   
    54    26    27 ar  
    55    26    54 ar  
    56    27    28 1   
    57    27    51 ar  
    58    28    29 1   
    59    28    96 1   
    60    29    30 ar  
    61    29    50 ar  
    62    30    31 1   
    63    30    47 ar  
    64    31    32 1   
    65    31    97 1   
    66    32    33 2   
    67    32    34 1   
    68    34    35 1   
    69    34    98 1   
    70    35    36 1   
    71    35    99 1   
    72    35   100 1   
    73    36    37 ar  
    74    36    46 ar  
    75    37    38 ar  
    76    37   101 1   
    77    38    39 ar  
    78    38   102 1   
    79    39    40 1   
    80    39    45 ar  
    81    40    41 1   
    82    40   103 1   
    83    40   104 1   
    84    41    42 1   
    85    41   105 1   
    86    42    43 2   
    87    42    44 1   
    88    44   106 1   
    89    45    46 ar  
    90    45   107 1   
    91    46   108 1   
    92    47    48 ar  
    93    47   109 1   
    94    48    49 ar  
    95    48    59 1   
    96    49    50 ar  
    97    49   110 1   
    98    50    51 1   
    99    51    52 ar  
   100    52    53 ar  
   101    52   111 1   
   102    53    54 ar  
   103    53    55 1   
   104    54   112 1   
   105    55    56 1   
   106    55    57 1   
   107    55    58 1   
   108    56   113 1   
   109    56   114 1   
   110    56   115 1   
   111    57   116 1   
   112    57   117 1   
   113    57   118 1   
   114    58   119 1   
   115    58   120 1   
   116    58   121 1   
   117    59    60 1   
   118    59    61 1   
   119    59    62 1   
   120    60   122 1   
   121    60   123 1   
   122    60   124 1   
   123    61   125 1   
   124    61   126 1   
   125    61   127 1   
   126    62   128 1   
   127    62   129 1   
   128    62   130 1   
   129    63    64 ar  
   130    63   131 1   
   131    64   132 1   
   132    65    66 ar  
   133    65   133 1   
   134    66    67 ar  
   135    66    71 1   
   136    67    68 ar  
   137    67   134 1   
   138    68    69 1   
   139    69    70 ar  
   140    70   135 1   
   141    71    72 1   
   142    71    73 1   
   143    71    74 1   
   144    72   136 1   
   145    72   137 1   
   146    72   138 1   
   147    73   139 1   
   148    73   140 1   
   149    73   141 1   
   150    74   142 1   
   151    74   143 1   
   152    74   144 1   
@<TRIPOS>SUBSTRUCTURE
     1 183         1 TEMP              0 ****  ****    0 ROOT
