@<TRIPOS>MOLECULE
18
  112   122     1     0     0
SMALL
bcc


@<TRIPOS>ATOM
      1 C1          -6.8820    -2.3800    -2.7190 ca         1 18       -0.117500
      2 C2          -5.6870    -1.7000    -2.4540 ca         1 18       -0.164050
      3 C3          -5.4410    -1.1030    -1.2250 ca         1 18        0.401100
      4 N1          -4.2580    -0.5090    -0.9980 nb         1 18       -0.617750
      5 C4          -3.9890     0.0810     0.1960 ca         1 18        0.376050
      6 C5          -4.9640     0.0670     1.2200 ca         1 18       -0.150050
      7 C6          -4.7160     0.6550     2.4630 ca         1 18       -0.110750
      8 C7          -3.4960     1.2640     2.7060 ca         1 18       -0.110750
      9 C8          -2.5190     1.2900     1.7070 ca         1 18       -0.150050
     10 C9          -1.2880     1.9020     1.9570 ca         1 18       -0.073500
     11 C10         -0.3030     1.9280     0.9710 ca         1 18       -0.143300
     12 C11          0.9530     2.5150     1.2020 ca         1 18       -0.097750
     13 C12          1.9440     2.4990     0.2140 ca         1 18       -0.076300
     14 C13          1.6400     1.9280    -1.0240 ca         1 18       -0.117500
     15 C14          0.3820     1.3560    -1.2470 ca         1 18       -0.164050
     16 C15         -0.5980     1.3330    -0.2640 ca         1 18        0.401100
     17 N2          -1.7840     0.7470    -0.5130 nb         1 18       -0.617750
     18 C16         -2.7500     0.7040     0.4410 ca         1 18        0.376050
     19 C17          3.3190     3.0370     0.5170 c3         1 18        0.208850
     20 N3           3.4230     4.4930     0.4170 n3         1 18       -0.828450
     21 C18          3.5680     4.9360    -0.9770 c3         1 18        0.162800
     22 C19          4.3420     6.2730    -1.0390 c3         1 18        0.159050
     23 N4           5.5850     6.3090    -0.2390 n3         1 18       -0.826700
     24 C20          6.6160     5.3920    -0.7530 c3         1 18        0.159050
     25 C21          7.9570     5.6030    -0.0130 c3         1 18        0.162800
     26 N5           9.0180     4.7140    -0.5170 n3         1 18       -0.828450
     27 C22          9.3780     3.6550     0.4370 c3         1 18        0.208850
     28 C23          8.2840     2.6380     0.6480 ca         1 18       -0.076300
     29 C24          7.6460     2.5200     1.8860 ca         1 18       -0.117500
     30 C25          6.5720     1.6390     2.0430 ca         1 18       -0.164050
     31 C26          6.0970     0.8750     0.9880 ca         1 18        0.401100
     32 N6           4.9910     0.1350     1.1620 nb         1 18       -0.617750
     33 C27          4.4450    -0.5420     0.1210 ca         1 18        0.376050
     34 C28          5.0860    -0.5520    -1.1380 ca         1 18       -0.150050
     35 C29          4.5430    -1.2560    -2.2230 ca         1 18       -0.110750
     36 C30          3.3300    -1.9200    -2.0940 ca         1 18       -0.110750
     37 C31          2.6510    -1.8810    -0.8770 ca         1 18       -0.150050
     38 C32          1.3260    -2.4970    -0.7650 ca         1 18       -0.073500
     39 C33          0.6340    -2.3990     0.3780 ca         1 18       -0.143300
     40 C34         -0.6940    -2.9380     0.5570 ca         1 18       -0.097750
     41 C35         -1.3590    -2.8130     1.7210 ca         1 18       -0.076300
     42 C36         -0.7180    -2.1280     2.8380 ca         1 18       -0.117500
     43 C37          0.5130    -1.6000     2.7620 ca         1 18       -0.164050
     44 C38          1.3080    -1.6810     1.5070 ca         1 18        0.401100
     45 N7           2.4920    -1.1520     1.4670 nb         1 18       -0.617750
     46 C39          3.2070    -1.2100     0.2370 ca         1 18        0.376050
     47 C40         -2.7630    -3.3350     1.9730 c3         1 18        0.208850
     48 N8          -3.4110    -3.8850     0.7810 n3         1 18       -0.828450
     49 C41         -4.7490    -4.4060     1.0850 c3         1 18        0.162800
     50 C42         -5.3730    -5.0320    -0.1790 c3         1 18        0.159050
     51 N9          -6.8040    -5.3050     0.0000 n3         1 18       -0.826700
     52 C43         -7.3990    -5.7930    -1.2520 c3         1 18        0.159050
     53 C44         -8.9320    -5.6030    -1.2520 c3         1 18        0.162800
     54 N10         -9.4150    -4.2440    -0.9290 n3         1 18       -0.828450
     55 C45         -9.1410    -3.2560    -1.9810 c3         1 18        0.208850
     56 C46         -7.8690    -2.4790    -1.7360 ca         1 18       -0.076300
     57 C47         -7.6540    -1.8330    -0.5110 ca         1 18       -0.097750
     58 C48         -6.4470    -1.1610    -0.2510 ca         1 18       -0.143300
     59 C49         -6.1920    -0.5570     0.9800 ca         1 18       -0.073500
     60 C50          6.2580     0.1940    -1.3010 ca         1 18       -0.073500
     61 C51          6.7600     0.9570    -0.2450 ca         1 18       -0.143300
     62 C52          7.8550     1.8230    -0.4070 ca         1 18       -0.097750
     63 H1          -7.0150    -2.8510    -3.6900 ha         1 18        0.136500
     64 H2          -4.9160    -1.6500    -3.2200 ha         1 18        0.154250
     65 H3          -5.4680     0.6440     3.2480 ha         1 18        0.135500
     66 H4          -3.3130     1.7190     3.6770 ha         1 18        0.135500
     67 H5          -1.0870     2.3550     2.9250 ha         1 18        0.140500
     68 H6           1.1800     2.9630     2.1670 ha         1 18        0.141750
     69 H7           2.3870     1.8970    -1.8120 ha         1 18        0.136500
     70 H8           0.1650     0.8980    -2.2090 ha         1 18        0.154250
     71 H9           4.0670     2.5490    -0.1160 h1         1 18        0.040200
     72 H10          3.5710     2.7490     1.5450 h1         1 18        0.040200
     73 H11          4.2840     4.7820     0.8930 hn         1 18        0.369300
     74 H12          4.1180     4.2000    -1.5770 h1         1 18        0.035325
     75 H13          2.5800     5.0630    -1.4320 h1         1 18        0.035325
     76 H14          4.5550     6.5310    -2.0840 h1         1 18        0.036950
     77 H15          3.6880     7.0630    -0.6500 h1         1 18        0.036950
     78 H16          5.9460     7.2630    -0.2660 hn         1 18        0.364800
     79 H17          6.2860     4.3580    -0.6230 h1         1 18        0.036950
     80 H18          6.7710     5.5670    -1.8250 h1         1 18        0.036950
     81 H19          8.2820     6.6370    -0.1870 h1         1 18        0.035325
     82 H20          7.8210     5.5130     1.0720 h1         1 18        0.035325
     83 H21          9.8560     5.2760    -0.6690 hn         1 18        0.369300
     84 H22          9.6960     4.0950     1.3900 h1         1 18        0.040200
     85 H23         10.2550     3.1230     0.0470 h1         1 18        0.040200
     86 H24          7.9530     3.1330     2.7300 ha         1 18        0.136500
     87 H25          6.0620     1.5780     3.0020 ha         1 18        0.154250
     88 H26          5.0490    -1.2680    -3.1860 ha         1 18        0.135500
     89 H27          2.9090    -2.4380    -2.9520 ha         1 18        0.135500
     90 H28          0.9120    -2.9960    -1.6340 ha         1 18        0.140500
     91 H29         -1.1450    -3.4450    -0.2900 ha         1 18        0.141750
     92 H30         -1.2720    -2.0470     3.7680 ha         1 18        0.136500
     93 H31          0.9790    -1.0900     3.5960 ha         1 18        0.154250
     94 H32         -2.7010    -4.1130     2.7450 h1         1 18        0.040200
     95 H33         -3.3770    -2.5170     2.3710 h1         1 18        0.040200
     96 H34         -3.5090    -3.1250     0.1000 hn         1 18        0.369300
     97 H35         -4.6950    -5.1680     1.8710 h1         1 18        0.035325
     98 H36         -5.3840    -3.5910     1.4510 h1         1 18        0.035325
     99 H37         -5.2300    -4.3480    -1.0230 h1         1 18        0.036950
    100 H38         -4.8430    -5.9630    -0.4180 h1         1 18        0.036950
    101 H39         -7.2880    -4.4340     0.2330 hn         1 18        0.364800
    102 H40         -6.9850    -5.2710    -2.1220 h1         1 18        0.036950
    103 H41         -7.1680    -6.8570    -1.3710 h1         1 18        0.036950
    104 H42         -9.3510    -6.2770    -0.4940 h1         1 18        0.035325
    105 H43         -9.3440    -5.9320    -2.2140 h1         1 18        0.035325
    106 H44        -10.4270    -4.3070    -0.8160 hn         1 18        0.369300
    107 H45         -9.1460    -3.7190    -2.9750 h1         1 18        0.040200
    108 H46         -9.9600    -2.5260    -1.9890 h1         1 18        0.040200
    109 H47         -8.4230    -1.8890     0.2580 ha         1 18        0.141750
    110 H48         -6.9520    -0.5840     1.7580 ha         1 18        0.140500
    111 H49          6.7540     0.2250    -2.2690 ha         1 18        0.140500
    112 H50          8.3440     1.9110    -1.3760 ha         1 18        0.141750
@<TRIPOS>BOND
     1     1     2 ar  
     2     1    56 ar  
     3     1    63 1   
     4     2     3 ar  
     5     2    64 1   
     6     3     4 ar  
     7     3    58 ar  
     8     4     5 ar  
     9     5     6 ar  
    10     5    18 ar  
    11     6     7 ar  
    12     6    59 ar  
    13     7     8 ar  
    14     7    65 1   
    15     8     9 ar  
    16     8    66 1   
    17     9    10 ar  
    18     9    18 ar  
    19    10    11 ar  
    20    10    67 1   
    21    11    12 ar  
    22    11    16 ar  
    23    12    13 ar  
    24    12    68 1   
    25    13    14 ar  
    26    13    19 1   
    27    14    15 ar  
    28    14    69 1   
    29    15    16 ar  
    30    15    70 1   
    31    16    17 ar  
    32    17    18 ar  
    33    19    20 1   
    34    19    71 1   
    35    19    72 1   
    36    20    21 1   
    37    20    73 1   
    38    21    22 1   
    39    21    74 1   
    40    21    75 1   
    41    22    23 1   
    42    22    76 1   
    43    22    77 1   
    44    23    24 1   
    45    23    78 1   
    46    24    25 1   
    47    24    79 1   
    48    24    80 1   
    49    25    26 1   
    50    25    81 1   
    51    25    82 1   
    52    26    27 1   
    53    26    83 1   
    54    27    28 1   
    55    27    84 1   
    56    27    85 1   
    57    28    29 ar  
    58    28    62 ar  
    59    29    30 ar  
    60    29    86 1   
    61    30    31 ar  
    62    30    87 1   
    63    31    32 ar  
    64    31    61 ar  
    65    32    33 ar  
    66    33    34 ar  
    67    33    46 ar  
    68    34    35 ar  
    69    34    60 ar  
    70    35    36 ar  
    71    35    88 1   
    72    36    37 ar  
    73    36    89 1   
    74    37    38 ar  
    75    37    46 ar  
    76    38    39 ar  
    77    38    90 1   
    78    39    40 ar  
    79    39    44 ar  
    80    40    41 ar  
    81    40    91 1   
    82    41    42 ar  
    83    41    47 1   
    84    42    43 ar  
    85    42    92 1   
    86    43    44 ar  
    87    43    93 1   
    88    44    45 ar  
    89    45    46 ar  
    90    47    48 1   
    91    47    94 1   
    92    47    95 1   
    93    48    49 1   
    94    48    96 1   
    95    49    50 1   
    96    49    97 1   
    97    49    98 1   
    98    50    51 1   
    99    50    99 1   
   100    50   100 1   
   101    51    52 1   
   102    51   101 1   
   103    52    53 1   
   104    52   102 1   
   105    52   103 1   
   106    53    54 1   
   107    53   104 1   
   108    53   105 1   
   109    54    55 1   
   110    54   106 1   
   111    55    56 1   
   112    55   107 1   
   113    55   108 1   
   114    56    57 ar  
   115    57    58 ar  
   116    57   109 1   
   117    58    59 ar  
   118    59   110 1   
   119    60    61 ar  
   120    60   111 1   
   121    61    62 ar  
   122    62   112 1   
@<TRIPOS>SUBSTRUCTURE
     1 18          1 TEMP              0 ****  ****    0 ROOT
