@<TRIPOS>MOLECULE
162
  160   172     1     0     0
SMALL
bcc


@<TRIPOS>ATOM
      1 C1           5.3480     1.2470    -0.3760 c3         1 162      -0.086600
      2 C2           3.9140     0.7320    -0.5570 c3         1 162       0.097650
      3 C3           3.0190     0.9450     0.7050 ca         1 162      -0.071550
      4 C4           3.4050     1.5300     1.9100 ca         1 162      -0.113000
      5 C5           2.4710     1.6430     2.9420 ca         1 162      -0.128500
      6 C6           1.1610     1.1790     2.7780 ca         1 162      -0.128500
      7 C7           0.7580     0.5880     1.5810 ca         1 162      -0.113000
      8 C8           1.6780     0.4660     0.5410 ca         1 162      -0.071550
      9 C9           1.4130    -0.1610    -0.8600 c3         1 162       0.097650
     10 C10         -0.0210    -0.6780    -1.0350 c3         1 162      -0.086600
     11 C11          2.4970    -1.2690    -1.0210 ca         1 162      -0.069050
     12 C12          2.2730    -2.6150    -1.2910 ca         1 162      -0.126500
     13 C13          3.3550    -3.5030    -1.3400 ca         1 162       0.080350
     14 O1           2.9960    -4.7940    -1.6370 os         1 162      -0.338650
     15 C14          3.6300    -5.8110    -0.8510 c3         1 162       0.107900
     16 C15          2.5900    -6.8840    -0.5330 c3         1 162       0.111775
     17 O2           1.7180    -6.3790     0.4840 os         1 162      -0.425850
     18 C16          0.6000    -7.2300     0.7150 c3         1 162       0.107775
     19 C17         -0.2820    -6.5710     1.7680 c3         1 162       0.107775
     20 O3          -1.4750    -7.3310     1.9550 os         1 162      -0.425850
     21 C18         -2.2650    -6.8740     3.0630 c3         1 162       0.111775
     22 C19         -2.8480    -5.4720     2.8540 c3         1 162       0.107900
     23 O4          -1.8580    -4.5070     3.2280 os         1 162      -0.338650
     24 C20         -2.2840    -3.2060     3.2960 ca         1 162       0.080350
     25 C21         -3.2240    -2.6540     2.4210 ca         1 162      -0.126500
     26 C22         -3.5920    -1.3150     2.5670 ca         1 162      -0.069050
     27 C23         -3.0060    -0.5110     3.5980 ca         1 162      -0.069050
     28 C24         -2.0500    -1.0610     4.4480 ca         1 162      -0.126500
     29 C25         -1.6780    -2.3970     4.2740 ca         1 162       0.080350
     30 O5          -0.7850    -2.9650     5.1500 os         1 162      -0.338650
     31 C26          0.5610    -2.5530     4.8860 c3         1 162       0.107900
     32 C27          1.2620    -3.5200     3.9350 c3         1 162       0.111775
     33 O6           2.6400    -3.1560     3.8410 os         1 162      -0.425850
     34 C28          3.3340    -3.9590     2.8850 c3         1 162       0.107775
     35 C29          4.7320    -3.3820     2.6900 c3         1 162       0.107775
     36 O7           5.4290    -4.1140     1.6810 os         1 162      -0.425850
     37 C30          6.5220    -3.3750     1.1410 c3         1 162       0.111775
     38 C31          6.8120    -3.7930    -0.3120 c3         1 162       0.107900
     39 O8           5.6880    -3.9580    -1.1920 os         1 162      -0.338650
     40 C32          4.6740    -3.0420    -1.1490 ca         1 162       0.080350
     41 C33          4.9110    -1.6750    -0.9630 ca         1 162      -0.126500
     42 C34          3.8350    -0.7920    -0.8600 ca         1 162      -0.069050
     43 C35         -3.5720     0.9410     3.6500 c3         1 162       0.097650
     44 C36         -2.9480     1.7980     4.7590 c3         1 162      -0.086600
     45 C37         -5.1150     0.7720     3.7880 ca         1 162      -0.071550
     46 C38         -5.9230     1.3100     4.7880 ca         1 162      -0.113000
     47 C39         -7.2970     1.0620     4.7610 ca         1 162      -0.128500
     48 C40         -7.8640     0.2840     3.7460 ca         1 162      -0.128500
     49 C41         -7.0690    -0.2640     2.7370 ca         1 162      -0.113000
     50 C42         -5.6960    -0.0270     2.7490 ca         1 162      -0.071550
     51 C43         -4.6530    -0.5510     1.7160 c3         1 162       0.097650
     52 C44         -5.2750    -1.4070     0.6040 c3         1 162      -0.086600
     53 C45         -3.9230     0.7210     1.1870 ca         1 162      -0.069050
     54 C46         -3.8330     1.1360    -0.1440 ca         1 162      -0.126500
     55 C47         -3.1880     2.3420    -0.4730 ca         1 162       0.080350
     56 O9          -3.1220     2.8260    -1.7570 os         1 162      -0.338650
     57 C48         -3.4000     1.8970    -2.8130 c3         1 162       0.107900
     58 C49         -2.9360     2.4680    -4.1530 c3         1 162       0.111775
     59 O10         -3.8780     3.4270    -4.6440 os         1 162      -0.425850
     60 C50         -3.7660     3.6550    -6.0590 c3         1 162       0.107775
     61 C51         -2.4120     4.2290    -6.4920 c3         1 162       0.107775
     62 O11         -1.4410     3.1780    -6.5290 os         1 162      -0.425850
     63 C52         -0.1090     3.6620    -6.7430 c3         1 162       0.111775
     64 C53          0.8600     2.8140    -5.9170 c3         1 162       0.107900
     65 O12          0.5990     3.1030    -4.5360 os         1 162      -0.338650
     66 C54          1.4870     2.4990    -3.6880 ca         1 162       0.080350
     67 C55          0.9810     1.4980    -2.8600 ca         1 162      -0.126500
     68 C56          1.8050     0.9490    -1.8810 ca         1 162      -0.069050
     69 C57          3.1490     1.4240    -1.7230 ca         1 162      -0.069050
     70 C58          3.6420     2.4260    -2.5590 ca         1 162      -0.126500
     71 C59          2.7960     2.9770    -3.5230 ca         1 162       0.080350
     72 O13          3.2490     3.9800    -4.3380 os         1 162      -0.338650
     73 C60          3.4260     5.2110    -3.6210 c3         1 162       0.107900
     74 C61          3.0580     6.3680    -4.5530 c3         1 162       0.111775
     75 O14          1.6530     6.4360    -4.8230 os         1 162      -0.425850
     76 C62          0.8860     6.9900    -3.7530 c3         1 162       0.107775
     77 C63         -0.0800     5.9600    -3.1720 c3         1 162       0.107775
     78 O15         -0.8450     6.5820    -2.1420 os         1 162      -0.425850
     79 C64         -1.8280     5.7120    -1.5690 c3         1 162       0.111775
     80 C65         -1.2170     4.6310    -0.6730 c3         1 162       0.107900
     81 O16         -2.0890     4.3760     0.4280 os         1 162      -0.338650
     82 C66         -2.6410     3.1310     0.5580 ca         1 162       0.080350
     83 C67         -2.7290     2.7180     1.8970 ca         1 162      -0.126500
     84 C68         -3.3550     1.5190     2.2220 ca         1 162      -0.069050
     85 H1           5.8580     0.7410     0.4520 hc         1 162       0.046950
     86 H2           5.9520     1.0870    -1.2770 hc         1 162       0.046950
     87 H3           5.3670     2.3220    -0.1590 hc         1 162       0.046950
     88 H4           4.4120     1.9010     2.0680 ha         1 162       0.137500
     89 H5           2.7630     2.0980     3.8860 ha         1 162       0.131500
     90 H6           0.4490     1.2780     3.5940 ha         1 162       0.131500
     91 H7          -0.2660     0.2370     1.4840 ha         1 162       0.137500
     92 H8          -0.2640    -1.4570    -0.3020 hc         1 162       0.046950
     93 H9          -0.7580     0.1250    -0.9110 hc         1 162       0.046950
     94 H10         -0.1770    -1.1080    -2.0320 hc         1 162       0.046950
     95 H11          1.2720    -3.0060    -1.4390 ha         1 162       0.150500
     96 H12          4.4390    -6.2470    -1.4450 h1         1 162       0.059700
     97 H13          4.0190    -5.4190     0.0920 h1         1 162       0.059700
     98 H14          3.0820    -7.7840    -0.1530 h1         1 162       0.059762
     99 H15          2.0090    -7.1280    -1.4300 h1         1 162       0.059762
    100 H16          0.0320    -7.3730    -0.2110 h1         1 162       0.054513
    101 H17          0.9370    -8.2140     1.0620 h1         1 162       0.054513
    102 H18         -0.5300    -5.5610     1.4250 h1         1 162       0.054513
    103 H19          0.2710    -6.4850     2.7110 h1         1 162       0.054513
    104 H20         -1.6680    -6.9320     3.9800 h1         1 162       0.059762
    105 H21         -3.0910    -7.5880     3.1510 h1         1 162       0.059762
    106 H22         -3.1200    -5.3490     1.7990 h1         1 162       0.059700
    107 H23         -3.7290    -5.3500     3.4950 h1         1 162       0.059700
    108 H24         -3.6610    -3.2550     1.6340 ha         1 162       0.150500
    109 H25         -1.6030    -0.4870     5.2520 ha         1 162       0.150500
    110 H26          1.0890    -2.5510     5.8470 h1         1 162       0.059700
    111 H27          0.6300    -1.5230     4.5120 h1         1 162       0.059700
    112 H28          1.1740    -4.5480     4.3050 h1         1 162       0.059762
    113 H29          0.7960    -3.4740     2.9450 h1         1 162       0.059762
    114 H30          3.3920    -4.9960     3.2350 h1         1 162       0.054513
    115 H31          2.8010    -3.9550     1.9270 h1         1 162       0.054513
    116 H32          5.3010    -3.4230     3.6260 h1         1 162       0.054513
    117 H33          4.6290    -2.3250     2.4140 h1         1 162       0.054513
    118 H34          6.3290    -2.2990     1.1820 h1         1 162       0.059762
    119 H35          7.4070    -3.5600     1.7600 h1         1 162       0.059762
    120 H36          7.2920    -4.7780    -0.2830 h1         1 162       0.059700
    121 H37          7.5340    -3.1090    -0.7730 h1         1 162       0.059700
    122 H38          5.9280    -1.3070    -0.8910 ha         1 162       0.150500
    123 H39         -1.8640     1.9000     4.6290 hc         1 162       0.046950
    124 H40         -3.3700     2.8100     4.7750 hc         1 162       0.046950
    125 H41         -3.1170     1.3620     5.7510 hc         1 162       0.046950
    126 H42         -5.5130     1.9200     5.5870 ha         1 162       0.137500
    127 H43         -7.9350     1.4800     5.5360 ha         1 162       0.131500
    128 H44         -8.9370     0.1050     3.7430 ha         1 162       0.131500
    129 H45         -7.5390    -0.8620     1.9630 ha         1 162       0.137500
    130 H46         -5.7810    -2.2920     1.0080 hc         1 162       0.046950
    131 H47         -6.0200    -0.8440     0.0300 hc         1 162       0.046950
    132 H48         -4.5160    -1.7610    -0.1050 hc         1 162       0.046950
    133 H49         -4.3030     0.5350    -0.9120 ha         1 162       0.150500
    134 H50         -2.8430     0.9680    -2.6410 h1         1 162       0.059700
    135 H51         -4.4780     1.7020    -2.8490 h1         1 162       0.059700
    136 H52         -1.9710     2.9630    -4.0240 h1         1 162       0.059762
    137 H53         -2.8500     1.6410    -4.8670 h1         1 162       0.059762
    138 H54         -3.9870     2.7210    -6.5850 h1         1 162       0.054513
    139 H55         -4.5510     4.3760    -6.3100 h1         1 162       0.054513
    140 H56         -2.4910     4.6560    -7.4970 h1         1 162       0.054513
    141 H57         -2.1000     5.0030    -5.7830 h1         1 162       0.054513
    142 H58         -0.0210     4.7140    -6.4500 h1         1 162       0.059762
    143 H59          0.1150     3.5680    -7.8100 h1         1 162       0.059762
    144 H60          0.6800     1.7480    -6.0980 h1         1 162       0.059700
    145 H61          1.8870     3.0700    -6.1970 h1         1 162       0.059700
    146 H62         -0.0490     1.1830    -2.9810 ha         1 162       0.150500
    147 H63          4.6580     2.7940    -2.4680 ha         1 162       0.150500
    148 H64          2.8210     5.2470    -2.7070 h1         1 162       0.059700
    149 H65          4.4840     5.2880    -3.3470 h1         1 162       0.059700
    150 H66          3.5490     6.2220    -5.5210 h1         1 162       0.059762
    151 H67          3.4030     7.3260    -4.1470 h1         1 162       0.059762
    152 H68          0.3110     7.8290    -4.1620 h1         1 162       0.054513
    153 H69          1.5160     7.4120    -2.9610 h1         1 162       0.054513
    154 H70         -0.7400     5.5800    -3.9580 h1         1 162       0.054513
    155 H71          0.4800     5.1190    -2.7580 h1         1 162       0.054513
    156 H72         -2.4490     5.2770    -2.3590 h1         1 162       0.059762
    157 H73         -2.4920     6.3500    -0.9740 h1         1 162       0.059762
    158 H74         -0.9330     3.7340    -1.2350 h1         1 162       0.059700
    159 H75         -0.2820     5.0100    -0.2410 h1         1 162       0.059700
    160 H76         -2.3170     3.3660     2.6660 ha         1 162       0.150500
@<TRIPOS>BOND
     1     1     2 1   
     2     1    85 1   
     3     1    86 1   
     4     1    87 1   
     5     2     3 1   
     6     2    42 1   
     7     2    69 1   
     8     3     4 ar  
     9     3     8 ar  
    10     4     5 ar  
    11     4    88 1   
    12     5     6 ar  
    13     5    89 1   
    14     6     7 ar  
    15     6    90 1   
    16     7     8 ar  
    17     7    91 1   
    18     8     9 1   
    19     9    10 1   
    20     9    11 1   
    21     9    68 1   
    22    10    92 1   
    23    10    93 1   
    24    10    94 1   
    25    11    12 ar  
    26    11    42 ar  
    27    12    13 ar  
    28    12    95 1   
    29    13    14 1   
    30    13    40 ar  
    31    14    15 1   
    32    15    16 1   
    33    15    96 1   
    34    15    97 1   
    35    16    17 1   
    36    16    98 1   
    37    16    99 1   
    38    17    18 1   
    39    18    19 1   
    40    18   100 1   
    41    18   101 1   
    42    19    20 1   
    43    19   102 1   
    44    19   103 1   
    45    20    21 1   
    46    21    22 1   
    47    21   104 1   
    48    21   105 1   
    49    22    23 1   
    50    22   106 1   
    51    22   107 1   
    52    23    24 1   
    53    24    25 ar  
    54    24    29 ar  
    55    25    26 ar  
    56    25   108 1   
    57    26    27 ar  
    58    26    51 1   
    59    27    28 ar  
    60    27    43 1   
    61    28    29 ar  
    62    28   109 1   
    63    29    30 1   
    64    30    31 1   
    65    31    32 1   
    66    31   110 1   
    67    31   111 1   
    68    32    33 1   
    69    32   112 1   
    70    32   113 1   
    71    33    34 1   
    72    34    35 1   
    73    34   114 1   
    74    34   115 1   
    75    35    36 1   
    76    35   116 1   
    77    35   117 1   
    78    36    37 1   
    79    37    38 1   
    80    37   118 1   
    81    37   119 1   
    82    38    39 1   
    83    38   120 1   
    84    38   121 1   
    85    39    40 1   
    86    40    41 ar  
    87    41    42 ar  
    88    41   122 1   
    89    43    44 1   
    90    43    45 1   
    91    43    84 1   
    92    44   123 1   
    93    44   124 1   
    94    44   125 1   
    95    45    46 ar  
    96    45    50 ar  
    97    46    47 ar  
    98    46   126 1   
    99    47    48 ar  
   100    47   127 1   
   101    48    49 ar  
   102    48   128 1   
   103    49    50 ar  
   104    49   129 1   
   105    50    51 1   
   106    51    52 1   
   107    51    53 1   
   108    52   130 1   
   109    52   131 1   
   110    52   132 1   
   111    53    54 ar  
   112    53    84 ar  
   113    54    55 ar  
   114    54   133 1   
   115    55    56 1   
   116    55    82 ar  
   117    56    57 1   
   118    57    58 1   
   119    57   134 1   
   120    57   135 1   
   121    58    59 1   
   122    58   136 1   
   123    58   137 1   
   124    59    60 1   
   125    60    61 1   
   126    60   138 1   
   127    60   139 1   
   128    61    62 1   
   129    61   140 1   
   130    61   141 1   
   131    62    63 1   
   132    63    64 1   
   133    63   142 1   
   134    63   143 1   
   135    64    65 1   
   136    64   144 1   
   137    64   145 1   
   138    65    66 1   
   139    66    67 ar  
   140    66    71 ar  
   141    67    68 ar  
   142    67   146 1   
   143    68    69 ar  
   144    69    70 ar  
   145    70    71 ar  
   146    70   147 1   
   147    71    72 1   
   148    72    73 1   
   149    73    74 1   
   150    73   148 1   
   151    73   149 1   
   152    74    75 1   
   153    74   150 1   
   154    74   151 1   
   155    75    76 1   
   156    76    77 1   
   157    76   152 1   
   158    76   153 1   
   159    77    78 1   
   160    77   154 1   
   161    77   155 1   
   162    78    79 1   
   163    79    80 1   
   164    79   156 1   
   165    79   157 1   
   166    80    81 1   
   167    80   158 1   
   168    80   159 1   
   169    81    82 1   
   170    82    83 ar  
   171    83    84 ar  
   172    83   160 1   
@<TRIPOS>SUBSTRUCTURE
     1 162         1 TEMP              0 ****  ****    0 ROOT
