@<TRIPOS>MOLECULE
179
   78    84     1     0     0
SMALL
bcc


@<TRIPOS>ATOM
      1 O           -0.7050    -7.5440     0.7470 o          0 179      -0.477100
      2 C            0.0620    -6.6130     0.5840 c          0 179       0.488800
      3 C1           1.5340    -6.4420     0.5550 c          0 179       0.488800
      4 O1           2.5000    -7.1700     0.6830 o          0 179      -0.477100
      5 C2           1.3180    -5.0030     0.3030 cc         0 179      -0.040200
      6 C3          -0.0710    -5.1640     0.3210 cd         0 179      -0.040200
      7 N           -1.1870    -4.3650     0.1680 nh         0 179      -0.679000
      8 C4          -2.4800    -4.8880     0.6260 c3         0 179       0.223100
      9 C5          -3.6280    -4.1710    -0.0310 ca         0 179      -0.121800
     10 C6          -4.0500    -2.9420     0.4430 ca         0 179      -0.112667
     11 C7          -5.1150    -2.2970    -0.1590 ca         0 179      -0.121800
     12 C8          -5.5940    -0.9640     0.3530 c3         0 179       0.223100
     13 N1          -4.5880     0.0790     0.0420 nh         0 179      -0.679000
     14 C9          -5.0700     1.3790    -0.0090 cc         0 179      -0.040200
     15 C10         -4.5110     2.6520    -0.1140 cd         0 179      -0.040200
     16 N2          -3.2440     3.1900    -0.1810 nh         0 179      -0.679000
     17 C11         -3.1040     4.5960    -0.5860 c3         0 179       0.223100
     18 C12         -1.8570     5.1880     0.0160 ca         0 179      -0.121800
     19 C13         -0.6170     4.9030    -0.5230 ca         0 179      -0.112667
     20 C14          0.5250     5.4460     0.0400 ca         0 179      -0.121800
     21 C15          1.8790     5.1500    -0.5460 c3         0 179       0.223100
     22 N3           2.3570     3.8270    -0.0920 nh         0 179      -0.679000
     23 C16          3.7290     3.6270    -0.1270 cc         0 179      -0.040200
     24 C17          4.5980     2.5460     0.0170 cd         0 179      -0.040200
     25 N4           4.4860     1.1940     0.2410 nh         0 179      -0.679000
     26 C18          5.6940     0.4080     0.5030 c3         0 179       0.223100
     27 C19          5.5540    -1.0020    -0.0030 ca         0 179      -0.121800
     28 C20          4.6430    -1.8700     0.5680 ca         0 179      -0.112667
     29 C21          4.5280    -3.1640     0.0930 ca         0 179      -0.121800
     30 C22          3.5540    -4.1210     0.7220 c3         0 179       0.223100
     31 N5           2.2070    -3.9550     0.1690 nh         0 179      -0.679000
     32 C23          5.3310    -3.5930    -0.9500 ca         0 179      -0.106000
     33 C24          6.2480    -2.7310    -1.5160 ca         0 179      -0.127667
     34 C25          6.3590    -1.4380    -1.0420 ca         0 179      -0.106000
     35 C26          5.7700     3.4160    -0.1720 c          0 179       0.488800
     36 O2           6.9760     3.2610    -0.1900 o          0 179      -0.477100
     37 C27          4.8480     4.5570    -0.3310 c          0 179       0.488800
     38 O3           4.9640     5.7510    -0.5390 o          0 179      -0.477100
     39 C28          0.4190     6.2820     1.1390 ca         0 179      -0.106000
     40 C29         -0.8210     6.5820     1.6710 ca         0 179      -0.127667
     41 C30         -1.9580     6.0350     1.1060 ca         0 179      -0.106000
     42 C31         -5.8430     3.2790    -0.1140 c          0 179       0.488800
     43 O4          -6.2730     4.4140    -0.1910 o          0 179      -0.477100
     44 C32         -6.4300     1.9310     0.0210 c          0 179       0.488800
     45 O5          -7.5540     1.4750     0.1150 o          0 179      -0.477100
     46 C33         -5.7570    -2.8900    -1.2340 ca         0 179      -0.106000
     47 C34         -5.3390    -4.1200    -1.7090 ca         0 179      -0.127667
     48 C35         -4.2730    -4.7580    -1.1050 ca         0 179      -0.106000
     49 H           -1.1180    -3.4830    -0.2310 hn         0 179       0.401300
     50 H1          -2.5400    -5.9500     0.3870 h1         0 179       0.073950
     51 H2          -2.5530    -4.7630     1.7060 h1         0 179       0.073950
     52 H3          -3.5470    -2.4860     1.2830 ha         0 179       0.132000
     53 H4          -6.5400    -0.7100    -0.1260 h1         0 179       0.073950
     54 H5          -5.7380    -1.0190     1.4320 h1         0 179       0.073950
     55 H6          -3.6550    -0.1340    -0.1150 hn         0 179       0.401300
     56 H7          -2.4640     2.6540     0.0330 hn         0 179       0.401300
     57 H8          -3.0430     4.6550    -1.6730 h1         0 179       0.073950
     58 H9          -3.9730     5.1590    -0.2450 h1         0 179       0.073950
     59 H10         -0.5380     4.2560    -1.3840 ha         0 179       0.132000
     60 H11          1.8090     5.1540    -1.6340 h1         0 179       0.073950
     61 H12          2.5850     5.9170    -0.2300 h1         0 179       0.073950
     62 H13          1.7460     3.1390     0.2150 hn         0 179       0.401300
     63 H14          3.6160     0.7650     0.2250 hn         0 179       0.401300
     64 H15          6.5420     0.8810     0.0080 h1         0 179       0.073950
     65 H16          5.8780     0.3840     1.5770 h1         0 179       0.073950
     66 H17          4.0210    -1.5390     1.3870 ha         0 179       0.132000
     67 H18          3.8890    -5.1420     0.5380 h1         0 179       0.073950
     68 H19          3.5260    -3.9460     1.7970 h1         0 179       0.073950
     69 H20          1.9470    -3.1320    -0.2740 hn         0 179       0.401300
     70 H21          5.2400    -4.6030    -1.3200 ha         0 179       0.146167
     71 H22          6.8770    -3.0660    -2.3280 ha         0 179       0.140667
     72 H23          7.0770    -0.7640    -1.4840 ha         0 179       0.146167
     73 H24          1.3100     6.7010     1.5820 ha         0 179       0.146167
     74 H25         -0.9010     7.2400     2.5240 ha         0 179       0.140667
     75 H26         -2.9280     6.2700     1.5160 ha         0 179       0.146167
     76 H27         -6.5900    -2.3880    -1.7040 ha         0 179       0.146167
     77 H28         -5.8430    -4.5790    -2.5460 ha         0 179       0.140667
     78 H29         -3.9420    -5.7180    -1.4730 ha         0 179       0.146167
@<TRIPOS>BOND
     1     1     2 2   
     2     2     3 1   
     3     2     6 1   
     4     3     4 2   
     5     3     5 1   
     6     5     6 2   
     7     5    31 1   
     8     6     7 1   
     9     7     8 1   
    10     7    49 1   
    11     8     9 1   
    12     8    50 1   
    13     8    51 1   
    14     9    10 ar  
    15     9    48 ar  
    16    10    11 ar  
    17    10    52 1   
    18    11    12 1   
    19    11    46 ar  
    20    12    13 1   
    21    12    53 1   
    22    12    54 1   
    23    13    14 1   
    24    13    55 1   
    25    14    15 2   
    26    14    44 1   
    27    15    16 1   
    28    15    42 1   
    29    16    17 1   
    30    16    56 1   
    31    17    18 1   
    32    17    57 1   
    33    17    58 1   
    34    18    19 ar  
    35    18    41 ar  
    36    19    20 ar  
    37    19    59 1   
    38    20    21 1   
    39    20    39 ar  
    40    21    22 1   
    41    21    60 1   
    42    21    61 1   
    43    22    23 1   
    44    22    62 1   
    45    23    24 2   
    46    23    37 1   
    47    24    25 1   
    48    24    35 1   
    49    25    26 1   
    50    25    63 1   
    51    26    27 1   
    52    26    64 1   
    53    26    65 1   
    54    27    28 ar  
    55    27    34 ar  
    56    28    29 ar  
    57    28    66 1   
    58    29    30 1   
    59    29    32 ar  
    60    30    31 1   
    61    30    67 1   
    62    30    68 1   
    63    31    69 1   
    64    32    33 ar  
    65    32    70 1   
    66    33    34 ar  
    67    33    71 1   
    68    34    72 1   
    69    35    36 2   
    70    35    37 1   
    71    37    38 2   
    72    39    40 ar  
    73    39    73 1   
    74    40    41 ar  
    75    40    74 1   
    76    41    75 1   
    77    42    43 2   
    78    42    44 1   
    79    44    45 2   
    80    46    47 ar  
    81    46    76 1   
    82    47    48 ar  
    83    47    77 1   
    84    48    78 1   
@<TRIPOS>SUBSTRUCTURE
     1 179         1 TEMP              0 ****  ****    0 ROOT
