@<TRIPOS>MOLECULE
54
  128   135     1     0     0
SMALL
bcc


@<TRIPOS>ATOM
      1 H            3.9180     1.5470     1.4120 ha         0 54        0.130000
      2 C            4.4970     2.4110     1.1220 ca         0 54       -0.116000
      3 C1           5.5070     2.8730     1.9450 ca         0 54       -0.126000
      4 C2           6.2480     3.9800     1.5750 ca         0 54       -0.055300
      5 C3           5.9800     4.6230     0.3810 ca         0 54       -0.126000
      6 C4           4.9710     4.1610    -0.4420 ca         0 54       -0.116000
      7 H1           4.7610     4.6640    -1.3740 ha         0 54        0.130000
      8 C5           4.2320     3.0520    -0.0740 ca         0 54       -0.100300
      9 C6           3.1320     2.5470    -0.9710 c3         0 54        0.196300
     10 N            3.1380     1.0670    -0.9990 n          0 54       -0.550900
     11 C7           4.2950     0.4570    -1.3770 c          0 54        0.682300
     12 O            5.2870     1.0910    -1.6770 o          0 54       -0.570100
     13 C8           4.2760    -1.0290    -1.4030 cc         0 54        0.068900
     14 C9           5.3580    -1.7220    -1.8150 cd         0 54       -0.260200
     15 C10          5.2780    -3.1910    -1.8600 c          0 54        0.584900
     16 O1           6.2230    -3.8710    -2.2200 o          0 54       -0.526100
     17 C11          3.9990    -3.8020    -1.4480 ca         0 54       -0.194600
     18 C12          3.7900    -5.1800    -1.4960 ca         0 54       -0.065000
     19 C13          2.5830    -5.7090    -1.0920 ca         0 54       -0.072300
     20 C14          1.5690    -4.8790    -0.6270 ca         0 54       -0.082000
     21 C15          1.7460    -3.5090    -0.5880 ca         0 54        0.028600
     22 N1           0.7540    -2.6420    -0.1340 n          0 54       -0.441100
     23 C16         -0.4650    -3.0840     0.2360 c          0 54        0.760100
     24 O2          -0.7790    -4.2560     0.1680 o          0 54       -0.610100
     25 N2          -1.3260    -2.1230     0.6950 n          0 54       -0.441100
     26 C17         -2.6440    -2.5320     0.9870 ca         0 54        0.028600
     27 C18         -2.9680    -3.8800     0.9760 ca         0 54       -0.082000
     28 C19         -4.2600    -4.2990     1.2570 ca         0 54       -0.072300
     29 C20         -5.2390    -3.3740     1.5530 ca         0 54       -0.065000
     30 C21         -4.9330    -2.0160     1.5500 ca         0 54       -0.194600
     31 C22         -3.6200    -1.5840     1.2790 ca         0 54        0.095100
     32 O3          -3.3240    -0.2670     1.3010 os         0 54       -0.242200
     33 C23         -4.2490     0.6940     1.4530 cc         0 54        0.068900
     34 C24         -5.5520     0.4150     1.6960 cd         0 54       -0.260200
     35 C25         -5.9700    -0.9930     1.7980 c          0 54        0.584900
     36 O4          -7.1170    -1.3000     2.0730 o          0 54       -0.526100
     37 C26         -3.8330     2.1030     1.3940 c          0 54        0.682300
     38 O5          -4.6360     2.9570     1.0750 o          0 54       -0.570100
     39 N3          -2.5510     2.4570     1.6960 n          0 54       -0.550900
     40 C27         -2.1020     3.7680     1.1600 c3         0 54        0.196300
     41 C28         -0.7230     3.5360     0.5880 ca         0 54       -0.101300
     42 C29          0.3030     3.1780     1.4460 ca         0 54       -0.116500
     43 C30          1.5570     2.8850     0.9420 ca         0 54       -0.116500
     44 C31          1.7840     2.9600    -0.4210 ca         0 54       -0.101300
     45 C32          0.7800     3.3750    -1.2710 ca         0 54       -0.116500
     46 C33         -0.4760     3.6640    -0.7640 ca         0 54       -0.116500
     47 C34         -3.0400     4.2340     0.0760 ca         0 54       -0.100300
     48 C35         -3.3450     3.3970    -0.9810 ca         0 54       -0.116000
     49 H2          -2.9110     2.4090    -1.0310 ha         0 54        0.130000
     50 C36         -4.2060     3.8240    -1.9750 ca         0 54       -0.126000
     51 C37         -4.7620     5.0880    -1.9110 ca         0 54       -0.055300
     52 C38         -4.4570     5.9250    -0.8540 ca         0 54       -0.126000
     53 C39         -3.6010     5.4960     0.1430 ca         0 54       -0.116000
     54 H3          -3.3630     6.1490     0.9690 ha         0 54        0.130000
     55 C40         -5.7000     5.5540    -2.9950 c3         0 54       -0.011700
     56 C41         -6.9100     4.6210    -3.0580 c3         0 54       -0.086100
     57 C42         -6.1690     6.9770    -2.6860 c3         0 54       -0.086100
     58 C43         -4.9720     5.5370    -4.3410 c3         0 54       -0.086100
     59 C44         -4.5950    -5.7690     1.2370 c3         0 54       -0.007700
     60 C45         -3.3430    -6.5730     0.8830 c3         0 54       -0.089433
     61 C46         -5.1020    -6.1950     2.6170 c3         0 54       -0.089433
     62 C47         -5.6820    -6.0300     0.1920 c3         0 54       -0.089433
     63 C48          2.9690    -2.9580    -1.0090 ca         0 54        0.095100
     64 O6           3.1430    -1.6260    -0.9940 os         0 54       -0.242200
     65 C49          2.3610    -7.1980    -1.1540 c3         0 54       -0.007700
     66 C50          3.3920    -7.9050    -0.2720 c3         0 54       -0.089433
     67 C51          0.9520    -7.5250    -0.6540 c3         0 54       -0.089433
     68 C52          2.5120    -7.6770    -2.5990 c3         0 54       -0.089433
     69 C53          7.3490     4.4840     2.4720 c3         0 54       -0.011700
     70 C54          8.3960     3.3850     2.6630 c3         0 54       -0.086100
     71 C55          8.0060     5.7090     1.8330 c3         0 54       -0.086100
     72 C56          6.7620     4.8710     3.8310 c3         0 54       -0.086100
     73 H4           5.7170     2.3700     2.8780 ha         0 54        0.136500
     74 H5           6.5590     5.4880     0.0920 ha         0 54        0.136500
     75 H6           3.2620     2.9400    -1.9790 h1         0 54        0.100700
     76 H7           2.3520     0.5530    -0.7580 hn         0 54        0.320500
     77 H8           6.2630    -1.2090    -2.1050 ha         0 54        0.185000
     78 H9           4.5740    -5.8330    -1.8500 ha         0 54        0.165000
     79 H10          0.6360    -5.3090    -0.2950 ha         0 54        0.183000
     80 H11          0.9460    -1.6930    -0.0830 hn         0 54        0.315500
     81 H12         -1.0420    -1.2030     0.8130 hn         0 54        0.315500
     82 H13         -2.2070    -4.6120     0.7470 ha         0 54        0.183000
     83 H14         -6.2410    -3.7030     1.7880 ha         0 54        0.165000
     84 H15         -6.2710     1.2120     1.8140 ha         0 54        0.185000
     85 H16         -1.9700     1.8900     2.2270 hn         0 54        0.320500
     86 H17         -2.0570     4.5050     1.9610 h1         0 54        0.100700
     87 H18          0.1240     3.1260     2.5100 ha         0 54        0.142000
     88 H19          2.3560     2.5990     1.6100 ha         0 54        0.142000
     89 H20          0.9730     3.4770    -2.3290 ha         0 54        0.142000
     90 H21         -1.2640     3.9870    -1.4270 ha         0 54        0.142000
     91 H22         -4.4440     3.1700    -2.8010 ha         0 54        0.136500
     92 H23         -4.8910     6.9120    -0.8040 ha         0 54        0.136500
     93 H24         -7.4290     4.6320    -2.0990 hc         0 54        0.037922
     94 H25         -7.5890     4.9580    -3.8420 hc         0 54        0.037922
     95 H26         -6.5760     3.6070    -3.2780 hc         0 54        0.037922
     96 H27         -5.3060     7.6420    -2.6410 hc         0 54        0.037922
     97 H28         -6.8470     7.3140    -3.4700 hc         0 54        0.037922
     98 H29         -6.6870     6.9890    -1.7270 hc         0 54        0.037922
     99 H30         -4.6380     4.5240    -4.5610 hc         0 54        0.037922
    100 H31         -5.6510     5.8750    -5.1250 hc         0 54        0.037922
    101 H32         -4.1100     6.2030    -4.2960 hc         0 54        0.037922
    102 H33         -2.5690    -6.3860     1.6270 hc         0 54        0.040811
    103 H34         -3.5850    -7.6350     0.8680 hc         0 54        0.040811
    104 H35         -2.9820    -6.2690    -0.1000 hc         0 54        0.040811
    105 H36         -5.9940    -5.6220     2.8690 hc         0 54        0.040811
    106 H37         -5.3440    -7.2580     2.6020 hc         0 54        0.040811
    107 H38         -4.3280    -6.0090     3.3610 hc         0 54        0.040811
    108 H39         -5.3210    -5.7260    -0.7910 hc         0 54        0.040811
    109 H40         -5.9240    -7.0930     0.1780 hc         0 54        0.040811
    110 H41         -6.5740    -5.4570     0.4440 hc         0 54        0.040811
    111 H42          3.2840    -7.5640     0.7580 hc         0 54        0.040811
    112 H43          3.2310    -8.9820    -0.3160 hc         0 54        0.040811
    113 H44          4.3950    -7.6720    -0.6280 hc         0 54        0.040811
    114 H45          0.2170    -7.0220    -1.2820 hc         0 54        0.040811
    115 H46          0.7910    -8.6020    -0.6980 hc         0 54        0.040811
    116 H47          0.8440    -7.1840     0.3760 hc         0 54        0.040811
    117 H48          3.5160    -7.4440    -2.9550 hc         0 54        0.040811
    118 H49          2.3520    -8.7540    -2.6440 hc         0 54        0.040811
    119 H50          1.7780    -7.1740    -3.2280 hc         0 54        0.040811
    120 H51          8.8140     3.1090     1.6950 hc         0 54        0.037922
    121 H52          9.1920     3.7500     3.3120 hc         0 54        0.037922
    122 H53          7.9270     2.5120     3.1180 hc         0 54        0.037922
    123 H54          7.2610     6.4920     1.6970 hc         0 54        0.037922
    124 H55          8.8020     6.0740     2.4830 hc         0 54        0.037922
    125 H56          8.4250     5.4340     0.8650 hc         0 54        0.037922
    126 H57          6.2930     3.9980     4.2860 hc         0 54        0.037922
    127 H58          7.5580     5.2360     4.4800 hc         0 54        0.037922
    128 H59          6.0160     5.6540     3.6950 hc         0 54        0.037922
@<TRIPOS>BOND
     1     1     2 1   
     2     2     3 ar  
     3     2     8 ar  
     4     3     4 ar  
     5     3    73 1   
     6     4     5 ar  
     7     4    69 1   
     8     5     6 ar  
     9     5    74 1   
    10     6     7 1   
    11     6     8 ar  
    12     8     9 1   
    13     9    10 1   
    14     9    44 1   
    15     9    75 1   
    16    10    11 1   
    17    10    76 1   
    18    11    12 2   
    19    11    13 1   
    20    13    14 2   
    21    13    64 1   
    22    14    15 1   
    23    14    77 1   
    24    15    16 2   
    25    15    17 1   
    26    17    18 ar  
    27    17    63 ar  
    28    18    19 ar  
    29    18    78 1   
    30    19    20 ar  
    31    19    65 1   
    32    20    21 ar  
    33    20    79 1   
    34    21    22 1   
    35    21    63 ar  
    36    22    23 1   
    37    22    80 1   
    38    23    24 2   
    39    23    25 1   
    40    25    26 1   
    41    25    81 1   
    42    26    27 ar  
    43    26    31 ar  
    44    27    28 ar  
    45    27    82 1   
    46    28    29 ar  
    47    28    59 1   
    48    29    30 ar  
    49    29    83 1   
    50    30    31 ar  
    51    30    35 1   
    52    31    32 1   
    53    32    33 1   
    54    33    34 2   
    55    33    37 1   
    56    34    35 1   
    57    34    84 1   
    58    35    36 2   
    59    37    38 2   
    60    37    39 1   
    61    39    40 1   
    62    39    85 1   
    63    40    41 1   
    64    40    47 1   
    65    40    86 1   
    66    41    42 ar  
    67    41    46 ar  
    68    42    43 ar  
    69    42    87 1   
    70    43    44 ar  
    71    43    88 1   
    72    44    45 ar  
    73    45    46 ar  
    74    45    89 1   
    75    46    90 1   
    76    47    48 ar  
    77    47    53 ar  
    78    48    49 1   
    79    48    50 ar  
    80    50    51 ar  
    81    50    91 1   
    82    51    52 ar  
    83    51    55 1   
    84    52    53 ar  
    85    52    92 1   
    86    53    54 1   
    87    55    56 1   
    88    55    57 1   
    89    55    58 1   
    90    56    93 1   
    91    56    94 1   
    92    56    95 1   
    93    57    96 1   
    94    57    97 1   
    95    57    98 1   
    96    58    99 1   
    97    58   100 1   
    98    58   101 1   
    99    59    60 1   
   100    59    61 1   
   101    59    62 1   
   102    60   102 1   
   103    60   103 1   
   104    60   104 1   
   105    61   105 1   
   106    61   106 1   
   107    61   107 1   
   108    62   108 1   
   109    62   109 1   
   110    62   110 1   
   111    63    64 1   
   112    65    66 1   
   113    65    67 1   
   114    65    68 1   
   115    66   111 1   
   116    66   112 1   
   117    66   113 1   
   118    67   114 1   
   119    67   115 1   
   120    67   116 1   
   121    68   117 1   
   122    68   118 1   
   123    68   119 1   
   124    69    70 1   
   125    69    71 1   
   126    69    72 1   
   127    70   120 1   
   128    70   121 1   
   129    70   122 1   
   130    71   123 1   
   131    71   124 1   
   132    71   125 1   
   133    72   126 1   
   134    72   127 1   
   135    72   128 1   
@<TRIPOS>SUBSTRUCTURE
     1 54          1 TEMP              0 ****  ****    0 ROOT
