@<TRIPOS>MOLECULE
16
  152   166     1     0     0
SMALL
bcc


@<TRIPOS>ATOM
      1 C1         -13.1070    -1.0420     2.1510 ca         1 16       -0.113500
      2 C2         -12.9770    -2.4000     1.8380 ca         1 16       -0.113500
      3 C3         -12.8230    -2.8170     0.5090 ca         1 16       -0.084000
      4 C4         -12.7780    -1.8420    -0.4970 ca         1 16       -0.113500
      5 C5         -12.9090    -0.4840    -0.1840 ca         1 16       -0.113500
      6 C6         -13.0870    -0.0690     1.1420 ca         1 16       -0.084000
      7 C7         -13.2870     1.3930     1.4770 c3         1 16       -0.118000
      8 C8         -11.9960     2.1830     1.5270 c2         1 16        0.065000
      9 C9         -11.6090     3.0010     0.4660 c2         1 16       -0.150000
     10 C10        -10.3920     3.6770     0.5140 c2         1 16        0.003500
     11 N1          -9.5560     3.5450     1.5760 na         1 16        0.017000
     12 C11         -9.9400     2.7910     2.6380 c2         1 16        0.003500
     13 C12        -11.1500     2.1000     2.6310 c2         1 16       -0.150000
     14 C13         -8.2300     4.1370     1.5470 ca         1 16       -0.076000
     15 C14         -7.6460     4.6250     2.7190 ca         1 16       -0.099000
     16 C15         -6.3140     5.0620     2.7000 ca         1 16       -0.109500
     17 C16         -5.5470     5.0150     1.5230 cp         1 16        0.034000
     18 C17         -6.1720     4.5610     0.3490 ca         1 16       -0.109500
     19 C18         -7.5020     4.1240     0.3530 ca         1 16       -0.099000
     20 C19         -4.1140     5.3640     1.5210 cq         1 16       -0.074000
     21 C20         -3.5700     6.2400     0.5700 ca         1 16       -0.101500
     22 C21         -2.1890     6.4830     0.5130 ca         1 16       -0.113500
     23 C22         -1.3030     5.8600     1.4030 cp         1 16       -0.020000
     24 C23         -1.8530     5.0180     2.3810 ca         1 16       -0.113500
     25 C24         -3.2310     4.7740     2.4390 ca         1 16       -0.101500
     26 C25          0.1580     6.0270     1.2880 cp         1 16       -0.020000
     27 C26          0.8110     5.8060     0.0660 ca         1 16       -0.113500
     28 C27          2.2070     5.8660    -0.0340 ca         1 16       -0.101500
     29 C28          3.0050     6.1500     1.0850 cp         1 16       -0.074000
     30 C29          2.3510     6.4140     2.2970 ca         1 16       -0.101500
     31 C30          0.9530     6.3540     2.3970 ca         1 16       -0.113500
     32 C31          4.4760     6.1040     0.9920 cp         1 16        0.034000
     33 C32          5.2220     5.3070     1.8790 ca         1 16       -0.109500
     34 C33          6.6080     5.1640     1.7410 ca         1 16       -0.099000
     35 C34          7.2710     5.8250     0.7020 ca         1 16       -0.076000
     36 C35          6.5600     6.6570    -0.1670 ca         1 16       -0.099000
     37 C36          5.1730     6.7930    -0.0160 ca         1 16       -0.109500
     38 N2           8.6800     5.5560     0.4750 na         1 16        0.017000
     39 C37          9.5210     5.3630     1.5220 c2         1 16        0.003500
     40 C38         10.8420     4.9660     1.3230 c2         1 16       -0.150000
     41 C39         11.3260     4.7740     0.0300 c2         1 16        0.065000
     42 C40         10.4640     5.0260    -1.0350 c2         1 16       -0.150000
     43 C41          9.1500     5.4200    -0.7920 c2         1 16        0.003500
     44 C42         12.7400     4.2890    -0.2130 c3         1 16       -0.118000
     45 C43         12.8230     2.8170    -0.5550 ca         1 16       -0.084000
     46 C44         12.9770     2.3990    -1.8840 ca         1 16       -0.113500
     47 C45         13.1070     1.0420    -2.1970 ca         1 16       -0.113500
     48 C46         13.0870     0.0690    -1.1880 ca         1 16       -0.084000
     49 C47         12.9090     0.4850     0.1390 ca         1 16       -0.113500
     50 C48         12.7780     1.8430     0.4520 ca         1 16       -0.113500
     51 C49         13.2870    -1.3930    -1.5220 c3         1 16       -0.118000
     52 C50         11.9960    -2.1840    -1.5720 c2         1 16        0.065000
     53 C51         11.6090    -3.0010    -0.5120 c2         1 16       -0.150000
     54 C52         10.3920    -3.6770    -0.5600 c2         1 16        0.003500
     55 N3           9.5560    -3.5460    -1.6210 na         1 16        0.017000
     56 C53          9.9400    -2.7910    -2.6830 c2         1 16        0.003500
     57 C54         11.1500    -2.1000    -2.6760 c2         1 16       -0.150000
     58 C55          8.2300    -4.1380    -1.5920 ca         1 16       -0.076000
     59 C56          7.5020    -4.1240    -0.3990 ca         1 16       -0.099000
     60 C57          6.1720    -4.5620    -0.3940 ca         1 16       -0.109500
     61 C58          5.5470    -5.0160    -1.5690 cp         1 16        0.034000
     62 C59          6.3140    -5.0610    -2.7460 ca         1 16       -0.109500
     63 C60          7.6460    -4.6240    -2.7650 ca         1 16       -0.099000
     64 C61          4.1140    -5.3640    -1.5660 cp         1 16       -0.074000
     65 C62          3.5700    -6.2410    -0.6160 ca         1 16       -0.101500
     66 C63          2.1890    -6.4840    -0.5590 ca         1 16       -0.113500
     67 C64          1.3030    -5.8600    -1.4490 cp         1 16       -0.020000
     68 C65          1.8530    -5.0170    -2.4260 ca         1 16       -0.113500
     69 C66          3.2310    -4.7730    -2.4840 ca         1 16       -0.101500
     70 C67         -0.1580    -6.0270    -1.3340 cp         1 16       -0.020000
     71 C68         -0.8110    -5.8060    -0.1120 ca         1 16       -0.113500
     72 C69         -2.2070    -5.8660    -0.0120 ca         1 16       -0.101500
     73 C70         -3.0050    -6.1500    -1.1300 cp         1 16       -0.074000
     74 C71         -2.3510    -6.4140    -2.3430 ca         1 16       -0.101500
     75 C72         -0.9530    -6.3530    -2.4420 ca         1 16       -0.113500
     76 C73         -4.4760    -6.1030    -1.0370 cp         1 16        0.034000
     77 C74         -5.1730    -6.7920    -0.0300 ca         1 16       -0.109500
     78 C75         -6.5600    -6.6570     0.1220 ca         1 16       -0.099000
     79 C76         -7.2710    -5.8250    -0.7470 ca         1 16       -0.076000
     80 C77         -6.6080    -5.1650    -1.7860 ca         1 16       -0.099000
     81 C78         -5.2220    -5.3080    -1.9240 ca         1 16       -0.109500
     82 N4          -8.6800    -5.5560    -0.5200 na         1 16        0.017000
     83 C79         -9.1500    -5.4190     0.7470 c2         1 16        0.003500
     84 C80        -10.4640    -5.0250     0.9900 c2         1 16       -0.150000
     85 C81        -11.3260    -4.7740    -0.0760 c2         1 16        0.065000
     86 C82        -10.8430    -4.9670    -1.3690 c2         1 16       -0.150000
     87 C83         -9.5220    -5.3630    -1.5680 c2         1 16        0.003500
     88 C84        -12.7400    -4.2890     0.1670 c3         1 16       -0.118000
     89 H1         -13.2650    -0.7570     3.1900 ha         1 16        0.147000
     90 H2         -13.0370    -3.1310     2.6430 ha         1 16        0.147000
     91 H3         -12.6820    -2.1340    -1.5410 ha         1 16        0.147000
     92 H4         -12.9110     0.2430    -0.9930 ha         1 16        0.147000
     93 H5         -13.8040     1.4930     2.4410 hc         1 16        0.140000
     94 H6         -13.9730     1.8380     0.7440 hc         1 16        0.140000
     95 H7         -12.2520     3.1180    -0.4050 ha         1 16        0.197000
     96 H8         -10.0950     4.3360    -0.2970 h4         1 16        0.211500
     97 H9          -9.2570     2.6860     3.4760 h4         1 16        0.211500
     98 H10        -11.4170     1.4800     3.4870 ha         1 16        0.197000
     99 H11         -8.1940     4.6960     3.6550 ha         1 16        0.155000
    100 H12         -5.8680     5.4390     3.6210 ha         1 16        0.168500
    101 H13         -5.6020     4.5030    -0.5790 ha         1 16        0.168500
    102 H14         -7.9050     3.7230    -0.5730 ha         1 16        0.155000
    103 H15         -4.2130     6.7440    -0.1480 ha         1 16        0.141500
    104 H16         -1.8090     7.1660    -0.2460 ha         1 16        0.149500
    105 H17         -1.2040     4.5080     3.0910 ha         1 16        0.149500
    106 H18         -3.6000     4.0830     3.1940 ha         1 16        0.141500
    107 H19          0.2360     5.5450    -0.8200 ha         1 16        0.149500
    108 H20          2.6630     5.6490    -0.9980 ha         1 16        0.141500
    109 H21          2.9220     6.6660     3.1890 ha         1 16        0.141500
    110 H22          0.4880     6.5600     3.3600 ha         1 16        0.149500
    111 H23          4.7110     4.7510     2.6650 ha         1 16        0.168500
    112 H24          7.1150     4.4830     2.4170 ha         1 16        0.155000
    113 H25          7.0460     7.2250    -0.9560 ha         1 16        0.155000
    114 H26          4.6270     7.4450    -0.7010 ha         1 16        0.168500
    115 H27          9.1440     5.5400     2.5260 h4         1 16        0.211500
    116 H28         11.4890     4.8080     2.1850 ha         1 16        0.197000
    117 H29         10.8030     4.8980    -2.0620 ha         1 16        0.197000
    118 H30          8.4630     5.5660    -1.6210 h4         1 16        0.211500
    119 H31         13.3640     4.4880     0.6680 hc         1 16        0.140000
    120 H32         13.1900     4.8890    -1.0160 hc         1 16        0.140000
    121 H33         13.0360     3.1300    -2.6890 ha         1 16        0.147000
    122 H34         13.2650     0.7560    -3.2350 ha         1 16        0.147000
    123 H35         12.9110    -0.2430     0.9480 ha         1 16        0.147000
    124 H36         12.6820     2.1350     1.4960 ha         1 16        0.147000
    125 H37         13.8040    -1.4930    -2.4870 hc         1 16        0.140000
    126 H38         13.9730    -1.8380    -0.7880 hc         1 16        0.140000
    127 H39         12.2520    -3.1190     0.3600 ha         1 16        0.197000
    128 H40         10.0950    -4.3370     0.2510 h4         1 16        0.211500
    129 H41          9.2570    -2.6850    -3.5210 h4         1 16        0.211500
    130 H42         11.4170    -1.4800    -3.5310 ha         1 16        0.197000
    131 H43          7.9050    -3.7250     0.5270 ha         1 16        0.155000
    132 H44          5.6020    -4.5040     0.5340 ha         1 16        0.168500
    133 H45          5.8680    -5.4380    -3.6670 ha         1 16        0.168500
    134 H46          8.1940    -4.6950    -3.7010 ha         1 16        0.155000
    135 H47          4.2140    -6.7460     0.1020 ha         1 16        0.141500
    136 H48          1.8090    -7.1670     0.2000 ha         1 16        0.149500
    137 H49          1.2030    -4.5070    -3.1360 ha         1 16        0.149500
    138 H50          3.6000    -4.0820    -3.2390 ha         1 16        0.141500
    139 H51         -0.2360    -5.5450     0.7750 ha         1 16        0.149500
    140 H52         -2.6630    -5.6490     0.9520 ha         1 16        0.141500
    141 H53         -2.9220    -6.6660    -3.2350 ha         1 16        0.141500
    142 H54         -0.4880    -6.5600    -3.4050 ha         1 16        0.149500
    143 H55         -4.6270    -7.4430     0.6560 ha         1 16        0.168500
    144 H56         -7.0460    -7.2240     0.9110 ha         1 16        0.155000
    145 H57         -7.1150    -4.4840    -2.4640 ha         1 16        0.155000
    146 H58         -4.7120    -4.7520    -2.7110 ha         1 16        0.168500
    147 H59         -8.4630    -5.5640     1.5750 h4         1 16        0.211500
    148 H60        -10.8030    -4.8960     2.0160 ha         1 16        0.197000
    149 H61        -11.4890    -4.8100    -2.2310 ha         1 16        0.197000
    150 H62         -9.1440    -5.5410    -2.5710 h4         1 16        0.211500
    151 H63        -13.3640    -4.4870    -0.7140 hc         1 16        0.140000
    152 H64        -13.1900    -4.8890     0.9700 hc         1 16        0.140000
@<TRIPOS>BOND
     1     1     2 1   
     2     1     6 1   
     3     1    89 1   
     4     2     3 1   
     5     2    90 1   
     6     3     4 1   
     7     3    88 1   
     8     4     5 1   
     9     4    91 1   
    10     5     6 1   
    11     5    92 1   
    12     6     7 1   
    13     7     8 1   
    14     7    93 1   
    15     7    94 1   
    16     8     9 1   
    17     8    13 1   
    18     9    10 1   
    19     9    95 1   
    20    10    11 1   
    21    10    96 1   
    22    11    12 1   
    23    11    14 1   
    24    12    13 1   
    25    12    97 1   
    26    13    98 1   
    27    14    15 1   
    28    14    19 1   
    29    15    16 1   
    30    15    99 1   
    31    16    17 1   
    32    16   100 1   
    33    17    18 1   
    34    17    20 1   
    35    18    19 1   
    36    18   101 1   
    37    19   102 1   
    38    20    21 1   
    39    20    25 1   
    40    21    22 1   
    41    21   103 1   
    42    22    23 1   
    43    22   104 1   
    44    23    24 1   
    45    23    26 1   
    46    24    25 1   
    47    24   105 1   
    48    25   106 1   
    49    26    27 1   
    50    26    31 1   
    51    27    28 1   
    52    27   107 1   
    53    28    29 1   
    54    28   108 1   
    55    29    30 1   
    56    29    32 1   
    57    30    31 1   
    58    30   109 1   
    59    31   110 1   
    60    32    33 1   
    61    32    37 1   
    62    33    34 1   
    63    33   111 1   
    64    34    35 1   
    65    34   112 1   
    66    35    36 1   
    67    35    38 1   
    68    36    37 1   
    69    36   113 1   
    70    37   114 1   
    71    38    39 1   
    72    38    43 1   
    73    39    40 1   
    74    39   115 1   
    75    40    41 1   
    76    40   116 1   
    77    41    42 1   
    78    41    44 1   
    79    42    43 1   
    80    42   117 1   
    81    43   118 1   
    82    44    45 1   
    83    44   119 1   
    84    44   120 1   
    85    45    46 1   
    86    45    50 1   
    87    46    47 1   
    88    46   121 1   
    89    47    48 1   
    90    47   122 1   
    91    48    49 1   
    92    48    51 1   
    93    49    50 1   
    94    49   123 1   
    95    50   124 1   
    96    51    52 1   
    97    51   125 1   
    98    51   126 1   
    99    52    53 1   
   100    52    57 1   
   101    53    54 1   
   102    53   127 1   
   103    54    55 1   
   104    54   128 1   
   105    55    56 1   
   106    55    58 1   
   107    56    57 1   
   108    56   129 1   
   109    57   130 1   
   110    58    59 1   
   111    58    63 1   
   112    59    60 1   
   113    59   131 1   
   114    60    61 1   
   115    60   132 1   
   116    61    62 1   
   117    61    64 1   
   118    62    63 1   
   119    62   133 1   
   120    63   134 1   
   121    64    65 1   
   122    64    69 1   
   123    65    66 1   
   124    65   135 1   
   125    66    67 1   
   126    66   136 1   
   127    67    68 1   
   128    67    70 1   
   129    68    69 1   
   130    68   137 1   
   131    69   138 1   
   132    70    71 1   
   133    70    75 1   
   134    71    72 1   
   135    71   139 1   
   136    72    73 1   
   137    72   140 1   
   138    73    74 1   
   139    73    76 1   
   140    74    75 1   
   141    74   141 1   
   142    75   142 1   
   143    76    77 1   
   144    76    81 1   
   145    77    78 1   
   146    77   143 1   
   147    78    79 1   
   148    78   144 1   
   149    79    80 1   
   150    79    82 1   
   151    80    81 1   
   152    80   145 1   
   153    81   146 1   
   154    82    83 1   
   155    82    87 1   
   156    83    84 1   
   157    83   147 1   
   158    84    85 1   
   159    84   148 1   
   160    85    86 1   
   161    85    88 1   
   162    86    87 1   
   163    86   149 1   
   164    87   150 1   
   165    88   151 1   
   166    88   152 1   
@<TRIPOS>SUBSTRUCTURE
     1 16          1 TEMP              0 ****  ****    0 ROOT
