@<TRIPOS>MOLECULE
ASB
   86    90     1     0     0
SMALL
bcc


@<TRIPOS>ATOM
      1 C            7.4590     2.9030    -0.4970 c3         0 ASB      -0.063300
      2 C1           6.8590     1.5270    -0.3560 ca         0 ASB      -0.064550
      3 C2           7.5650     0.4190    -0.7820 ca         0 ASB      -0.165500
      4 C3           7.0190    -0.8420    -0.6520 ca         0 ASB      -0.064550
      5 C4           7.7940    -2.0510    -1.1110 c3         0 ASB      -0.063300
      6 C5           5.7580    -0.9970    -0.0980 ca         0 ASB      -0.098550
      7 C6           5.1830    -2.3800     0.0480 c3         0 ASB       0.154300
      8 N            3.7390    -2.3570    -0.2740 n          0 ASB      -0.567900
      9 C7           3.0020    -3.3410     0.3250 c          0 ASB       0.723300
     10 O            3.5480    -4.2040     0.9850 o          0 ASB      -0.735100
     11 C8           1.5350    -3.3410     0.1620 cc         0 ASB      -0.282900
     12 C9           0.7760    -4.3910     0.6940 c          0 ASB       0.476000
     13 O1           1.3910    -5.4070     1.3540 o          0 ASB      -0.879850
     14 C10         -0.6000    -4.3930     0.5490 cc         0 ASB      -0.256950
     15 C11         -1.2340    -3.3460    -0.1160 cd         0 ASB      -0.282900
     16 C12         -0.4730    -2.2950    -0.6510 c          0 ASB       0.476000
     17 O2          -1.0880    -1.2750    -1.3020 o          0 ASB      -0.879850
     18 C13          0.9020    -2.2990    -0.5130 cd         0 ASB      -0.256950
     19 C14         -2.6990    -3.3450    -0.2830 c          0 ASB       0.723300
     20 O3          -3.3440    -4.3500    -0.0580 o          0 ASB      -0.735100
     21 N1          -3.3230    -2.2030    -0.6920 n          0 ASB      -0.567900
     22 C15         -4.7470    -2.3380    -1.0510 c3         0 ASB       0.154300
     23 C16         -5.5210    -1.1730    -0.4910 ca         0 ASB      -0.098550
     24 C17         -6.7190    -1.3980     0.1610 ca         0 ASB      -0.064550
     25 C18         -7.2400    -2.8030     0.3150 c3         0 ASB      -0.063300
     26 C19         -7.4400    -0.3340     0.6710 ca         0 ASB      -0.165500
     27 C20         -6.9650     0.9550     0.5310 ca         0 ASB      -0.064550
     28 C21         -7.7530     2.1140     1.0850 c3         0 ASB      -0.063300
     29 C22         -5.7640     1.1810    -0.1200 ca         0 ASB      -0.098550
     30 C23         -5.2520     2.5890    -0.2690 c3         0 ASB       0.154300
     31 N2          -3.8520     2.6390     0.2040 n          0 ASB      -0.567900
     32 C24         -2.9410     3.1530    -0.6730 c          0 ASB       0.723300
     33 O4          -3.2820     3.5370    -1.7750 o          0 ASB      -0.735100
     34 C25         -1.5270     3.2310    -0.2470 cc         0 ASB      -0.282900
     35 C26         -1.2060     3.1440     1.1160 c          0 ASB       0.476000
     36 O5          -2.1930     3.0390     2.0420 o          0 ASB      -0.879850
     37 C27          0.1180     3.1650     1.5130 cc         0 ASB      -0.256950
     38 C28          1.1340     3.2410     0.5620 cd         0 ASB      -0.282900
     39 C29          0.8120     3.3790    -0.7970 c          0 ASB       0.476000
     40 O6           1.7990     3.5090    -1.7210 o          0 ASB      -0.879850
     41 C30         -0.5140     3.3810    -1.1940 cd         0 ASB      -0.256950
     42 C31          2.5450     3.1600     0.9770 c          0 ASB       0.723300
     43 O7           2.8950     3.6450     2.0350 o          0 ASB      -0.735100
     44 N3           3.4610     2.5410     0.1760 n          0 ASB      -0.567900
     45 C32          4.8530     2.5940     0.6750 c3         0 ASB       0.154300
     46 C33          5.6040     1.3740     0.2060 ca         0 ASB      -0.098550
     47 C34          5.0510     0.1140     0.3230 ca         0 ASB      -0.038300
     48 C35          3.6730    -0.0500     0.9090 c3         0 ASB      -0.063300
     49 C36         -5.0440     0.1160    -0.6300 ca         0 ASB      -0.038300
     50 C37         -3.7370     0.3620    -1.3390 c3         0 ASB      -0.063300
     51 H            7.1800     3.3230    -1.4640 hc         0 ASB       0.044867
     52 H1           7.0850     3.5450     0.3000 hc         0 ASB       0.044867
     53 H2           8.5440     2.8340    -0.4310 hc         0 ASB       0.044867
     54 H3           8.5450     0.5390    -1.2180 ha         0 ASB       0.101500
     55 H4           8.3180    -2.4900    -0.2620 hc         0 ASB       0.044867
     56 H5           7.1070    -2.7840    -1.5330 hc         0 ASB       0.044867
     57 H6           8.5170    -1.7510    -1.8700 hc         0 ASB       0.044867
     58 H7           5.6950    -3.0590    -0.6330 h1         0 ASB       0.021700
     59 H8           5.3210    -2.7230     1.0730 h1         0 ASB       0.021700
     60 H9           3.3460    -1.6960    -0.8650 hn         0 ASB       0.336500
     61 H10         -1.1840    -5.2080     0.9510 ha         0 ASB       0.089750
     62 H11          1.4880    -1.4920    -0.9300 ha         0 ASB       0.089750
     63 H12         -2.8580    -1.3530    -0.7430 hn         0 ASB       0.336500
     64 H13         -4.8480    -2.3520    -2.1360 h1         0 ASB       0.021700
     65 H14         -5.1400    -3.2670    -0.6380 h1         0 ASB       0.021700
     66 H15         -6.8640    -3.2300     1.2440 hc         0 ASB       0.044867
     67 H16         -8.3300    -2.7860     0.3370 hc         0 ASB       0.044867
     68 H17         -6.9030    -3.4100    -0.5260 hc         0 ASB       0.044867
     69 H18         -8.3760    -0.5120     1.1790 ha         0 ASB       0.101500
     70 H19         -7.4420     2.3060     2.1120 hc         0 ASB       0.044867
     71 H20         -7.5700     3.0000     0.4780 hc         0 ASB       0.044867
     72 H21         -8.8160     1.8730     1.0660 hc         0 ASB       0.044867
     73 H22         -5.2940     2.8830    -1.3180 h1         0 ASB       0.021700
     74 H23         -5.8640     3.2650     0.3270 h1         0 ASB       0.021700
     75 H24         -3.5960     2.3260     1.0850 hn         0 ASB       0.336500
     76 H25          0.3660     3.1220     2.5630 ha         0 ASB       0.089750
     77 H26         -0.7650     3.4990    -2.2370 ha         0 ASB       0.089750
     78 H27          3.2180     2.1010    -0.6540 hn         0 ASB       0.336500
     79 H28          5.3420     3.4890     0.2920 h1         0 ASB       0.021700
     80 H29          4.8480     2.6200     1.7640 h1         0 ASB       0.021700
     81 H30          2.9300     0.0030     0.1130 hc         0 ASB       0.049367
     82 H31          3.6020    -1.0170     1.4070 hc         0 ASB       0.049367
     83 H32          3.4880     0.7450     1.6320 hc         0 ASB       0.049367
     84 H33         -2.9210     0.3320    -0.6180 hc         0 ASB       0.049367
     85 H34         -3.5830    -0.4090    -2.0950 hc         0 ASB       0.049367
     86 H35         -3.7620     1.3400    -1.8190 hc         0 ASB       0.049367
@<TRIPOS>BOND
     1     1     2 1   
     2     1    51 1   
     3     1    52 1   
     4     1    53 1   
     5     2     3 ar  
     6     2    46 ar  
     7     3     4 ar  
     8     3    54 1   
     9     4     5 1   
    10     4     6 ar  
    11     5    55 1   
    12     5    56 1   
    13     5    57 1   
    14     6     7 1   
    15     6    47 ar  
    16     7     8 1   
    17     7    58 1   
    18     7    59 1   
    19     8     9 1   
    20     8    60 1   
    21     9    10 2   
    22     9    11 1   
    23    11    12 1   
    24    11    18 2   
    25    12    13 2   
    26    12    14 1   
    27    14    15 2   
    28    14    61 1   
    29    15    16 1   
    30    15    19 1   
    31    16    17 2   
    32    16    18 1   
    33    18    62 1   
    34    19    20 2   
    35    19    21 1   
    36    21    22 1   
    37    21    63 1   
    38    22    23 1   
    39    22    64 1   
    40    22    65 1   
    41    23    24 ar  
    42    23    49 ar  
    43    24    25 1   
    44    24    26 ar  
    45    25    66 1   
    46    25    67 1   
    47    25    68 1   
    48    26    27 ar  
    49    26    69 1   
    50    27    28 1   
    51    27    29 ar  
    52    28    70 1   
    53    28    71 1   
    54    28    72 1   
    55    29    30 1   
    56    29    49 ar  
    57    30    31 1   
    58    30    73 1   
    59    30    74 1   
    60    31    32 1   
    61    31    75 1   
    62    32    33 2   
    63    32    34 1   
    64    34    35 1   
    65    34    41 2   
    66    35    36 2   
    67    35    37 1   
    68    37    38 2   
    69    37    76 1   
    70    38    39 1   
    71    38    42 1   
    72    39    40 2   
    73    39    41 1   
    74    41    77 1   
    75    42    43 2   
    76    42    44 1   
    77    44    45 1   
    78    44    78 1   
    79    45    46 1   
    80    45    79 1   
    81    45    80 1   
    82    46    47 ar  
    83    47    48 1   
    84    48    81 1   
    85    48    82 1   
    86    48    83 1   
    87    49    50 1   
    88    50    84 1   
    89    50    85 1   
    90    50    86 1   
@<TRIPOS>SUBSTRUCTURE
     1 ASB         1 TEMP              0 ****  ****    0 ROOT
